Global frequency set at 1000000000000 ticks per second
Forcing maxCoalescedReqs to 32 (TLB assoc.) 
Forcing maxCoalescedReqs to 32 (TLB assoc.) 
Forcing maxCoalescedReqs to 32 (TLB assoc.) 
Forcing maxCoalescedReqs to 32 (TLB assoc.) 
Forcing maxCoalescedReqs to 32 (TLB assoc.) 
Forcing maxCoalescedReqs to 32 (TLB assoc.) 
Forcing maxCoalescedReqs to 32 (TLB assoc.) 
Forcing maxCoalescedReqs to 32 (TLB assoc.) 
gem5 Simulator System.  https://www.gem5.org
gem5 is copyrighted software; use the --copyright option for details.

gem5 version DEVELOP-FOR-23.1
gem5 compiled Nov 19 2023 12:06:45
gem5 started Nov 20 2023 18:10:49
gem5 executing on 829fc6bcf52e, pid 1
command line: build/VEGA_X86/gem5.opt --debug-flag=RubyHitMiss --debug-start=160565832331 --debug-end=160574581905 configs/example/apu_se.py -n 3 --dgpu --gfx-version=gfx900 --num-compute-units=4 --cu-per-sa=4 --num-gpu-complex=1 --reg-alloc-policy=dynamic --num-tccs=8 --num-dirs=64 --mem-size=16GB --mem-type=HBM_2000_4H_1x64 --vreg-file-size=16384 --sreg-file-size=800 --tcc-size=256kB --gpu-clock=1801MHz --ruby-clock=1000MHz --vrf_lm_bus_latency=6 --mem-req-latency=69 --mem-resp-latency=69 --mandatory_queue_latency=1 --max-cu-tokens=160 --max-coalesces-per-cycle=10 --sqc-size=16kB --tcp-size=512B --scalar-mem-req-latency=28 --TCP_latency=4 --tcp-assoc=4 --tcp-num-banks=16 --TCC_latency=121 --tcc-assoc=16 --tcc-tag-access-latency=1 --tcc-data-access-latency=1 --tcp-rp=LRURP --WB_L2 --tcc-rp=LRURP -c gpu_test/lru_test_1

info: Standard input is not a terminal, disabling listeners.
Num SQC =  1 Num scalar caches =  1 Num CU =  4
160565833000: system.ruby.cp_cntrl0.sequencer: Cache miss at [0x13a7718, line 0x13a7700]
160565835000: system.ruby.cp_cntrl0.sequencer: Cache miss at [0x13a7718, line 0x13a7700]
160565837000: system.ruby.cp_cntrl0.sequencer: Cache miss at [0x13a7720, line 0x13a7700]
160565839000: system.ruby.cp_cntrl0.sequencer: Cache miss at [0x13a7720, line 0x13a7700]
160565841000: system.ruby.cp_cntrl0.sequencer: Cache miss at [0x13a7720, line 0x13a7700]
160565843000: system.ruby.cp_cntrl0.sequencer: Cache miss at [0x38a68, line 0x38a40]
160565845000: system.ruby.cp_cntrl0.sequencer: Cache miss at [0x3fa8740, line 0x3fa8740]
160565847000: system.ruby.cp_cntrl0.sequencer: Cache miss at [0x10dfae8, line 0x10dfac0]
160565849000: system.ruby.cp_cntrl0.sequencer: Cache miss at [0x3fa8748, line 0x3fa8740]
160565851000: system.ruby.cp_cntrl0.sequencer: Cache miss at [0x3fa8748, line 0x3fa8740]
160565853000: system.ruby.cp_cntrl0.sequencer: Cache miss at [0x3fa8740, line 0x3fa8740]
160565855000: system.ruby.cp_cntrl0.sequencer: Cache miss at [0x38a68, line 0x38a40]
160565857000: system.ruby.cp_cntrl0.sequencer: Cache miss at [0xfaa3f0, line 0xfaa3c0]
160565859000: system.ruby.cp_cntrl0.sequencer: Cache miss at [0xfaa3f0, line 0xfaa3c0]
160565861000: system.ruby.cp_cntrl0.sequencer: Cache miss at [0xfaa3f8, line 0xfaa3c0]
160565863000: system.ruby.cp_cntrl0.sequencer: Cache miss at [0xf90c20, line 0xf90c00]
160565865000: system.ruby.cp_cntrl0.sequencer: Cache miss at [0xc62610, line 0xc62600]
160565867000: system.ruby.cp_cntrl0.sequencer: Cache miss at [0x13a7710, line 0x13a7700]
160565869000: system.ruby.cp_cntrl0.sequencer: Cache miss at [0x13a7710, line 0x13a7700]
160565871000: system.ruby.cp_cntrl0.sequencer: Cache miss at [0x13a7718, line 0x13a7700]
160565873000: system.ruby.cp_cntrl0.sequencer: Cache miss at [0x13a7718, line 0x13a7700]
160565875000: system.ruby.cp_cntrl0.sequencer: Cache miss at [0x13a7718, line 0x13a7700]
160565877000: system.ruby.cp_cntrl0.sequencer: Cache miss at [0x13a7720, line 0x13a7700]
160565879000: system.ruby.cp_cntrl0.sequencer: Cache miss at [0x13a7720, line 0x13a7700]
160565881000: system.ruby.cp_cntrl0.sequencer: Cache miss at [0x13a7720, line 0x13a7700]
160565883000: system.ruby.cp_cntrl0.sequencer: Cache miss at [0x38a68, line 0x38a40]
160565885000: system.ruby.cp_cntrl0.sequencer: Cache miss at [0x3fa8740, line 0x3fa8740]
160565887000: system.ruby.cp_cntrl0.sequencer: Cache miss at [0x10dfae8, line 0x10dfac0]
160565889000: system.ruby.cp_cntrl0.sequencer: Cache miss at [0x3fa8748, line 0x3fa8740]
160565891000: system.ruby.cp_cntrl0.sequencer: Cache miss at [0x3fa8748, line 0x3fa8740]
160565893000: system.ruby.cp_cntrl0.sequencer: Cache miss at [0x3fa8740, line 0x3fa8740]
160565895000: system.ruby.cp_cntrl0.sequencer: Cache miss at [0x38a68, line 0x38a40]
160565897000: system.ruby.cp_cntrl0.sequencer: Cache miss at [0xfaa3f0, line 0xfaa3c0]
160565899000: system.ruby.cp_cntrl0.sequencer: Cache miss at [0xfaa3f0, line 0xfaa3c0]
160565901000: system.ruby.cp_cntrl0.sequencer: Cache miss at [0xfaa3f8, line 0xfaa3c0]
160565903000: system.ruby.cp_cntrl0.sequencer: Cache miss at [0xf90c20, line 0xf90c00]
160565905000: system.ruby.cp_cntrl0.sequencer: Cache miss at [0xc62610, line 0xc62600]
160565907000: system.ruby.cp_cntrl0.sequencer: Cache miss at [0x13a7710, line 0x13a7700]
160565909000: system.ruby.cp_cntrl0.sequencer: Cache miss at [0x13a7710, line 0x13a7700]
160565911000: system.ruby.cp_cntrl0.sequencer: Cache miss at [0x13a7718, line 0x13a7700]
160565913000: system.ruby.cp_cntrl0.sequencer: Cache miss at [0x13a7718, line 0x13a7700]
160565915000: system.ruby.cp_cntrl0.sequencer: Cache miss at [0x13a7718, line 0x13a7700]
160565917000: system.ruby.cp_cntrl0.sequencer: Cache miss at [0x13a7720, line 0x13a7700]
160565919000: system.ruby.cp_cntrl0.sequencer: Cache miss at [0x13a7720, line 0x13a7700]
160565921000: system.ruby.cp_cntrl0.sequencer: Cache miss at [0x13a7720, line 0x13a7700]
160565923000: system.ruby.cp_cntrl0.sequencer: Cache miss at [0x38a68, line 0x38a40]
160565925000: system.ruby.cp_cntrl0.sequencer: Cache miss at [0x3fa8740, line 0x3fa8740]
160565927000: system.ruby.cp_cntrl0.sequencer: Cache miss at [0x10dfae8, line 0x10dfac0]
160565929000: system.ruby.cp_cntrl0.sequencer: Cache miss at [0x3fa8748, line 0x3fa8740]
160565931000: system.ruby.cp_cntrl0.sequencer: Cache miss at [0x3fa8748, line 0x3fa8740]
160565933000: system.ruby.cp_cntrl0.sequencer: Cache miss at [0x3fa8740, line 0x3fa8740]
160565935000: system.ruby.cp_cntrl0.sequencer: Cache miss at [0x38a68, line 0x38a40]
160565937000: system.ruby.cp_cntrl0.sequencer: Cache miss at [0xfaa3f0, line 0xfaa3c0]
160565939000: system.ruby.cp_cntrl0.sequencer: Cache miss at [0xfaa3f0, line 0xfaa3c0]
160565941000: system.ruby.cp_cntrl0.sequencer: Cache miss at [0xfaa3f8, line 0xfaa3c0]
160565943000: system.ruby.cp_cntrl0.sequencer: Cache miss at [0xf90c20, line 0xf90c00]
160565945000: system.ruby.cp_cntrl0.sequencer: Cache miss at [0xc62610, line 0xc62600]
160565947000: system.ruby.cp_cntrl0.sequencer: Cache miss at [0x13a7710, line 0x13a7700]
160565949000: system.ruby.cp_cntrl0.sequencer: Cache miss at [0x13a7710, line 0x13a7700]
160565951000: system.ruby.cp_cntrl0.sequencer: Cache miss at [0x13a7718, line 0x13a7700]
160565953000: system.ruby.cp_cntrl0.sequencer: Cache miss at [0x13a7718, line 0x13a7700]
160565955000: system.ruby.cp_cntrl0.sequencer: Cache miss at [0x13a7718, line 0x13a7700]
160565957000: system.ruby.cp_cntrl0.sequencer: Cache miss at [0x13a7720, line 0x13a7700]
160565959000: system.ruby.cp_cntrl0.sequencer: Cache miss at [0x13a7720, line 0x13a7700]
160565961000: system.ruby.cp_cntrl0.sequencer: Cache miss at [0x13a7720, line 0x13a7700]
160565963000: system.ruby.cp_cntrl0.sequencer: Cache miss at [0x38a68, line 0x38a40]
160565965000: system.ruby.cp_cntrl0.sequencer: Cache miss at [0x3fa8740, line 0x3fa8740]
160565967000: system.ruby.cp_cntrl0.sequencer: Cache miss at [0x10dfae8, line 0x10dfac0]
160565969000: system.ruby.cp_cntrl0.sequencer: Cache miss at [0x3fa8748, line 0x3fa8740]
160565971000: system.ruby.cp_cntrl0.sequencer: Cache miss at [0x3fa8748, line 0x3fa8740]
160565973000: system.ruby.cp_cntrl0.sequencer: Cache miss at [0x3fa8740, line 0x3fa8740]
160565975000: system.ruby.cp_cntrl0.sequencer: Cache miss at [0x38a68, line 0x38a40]
160565977000: system.ruby.cp_cntrl0.sequencer: Cache miss at [0xfaa3f0, line 0xfaa3c0]
160565979000: system.ruby.cp_cntrl0.sequencer: Cache miss at [0xfaa3f0, line 0xfaa3c0]
160565981000: system.ruby.cp_cntrl0.sequencer: Cache miss at [0xfaa3f8, line 0xfaa3c0]
160565983000: system.ruby.cp_cntrl0.sequencer: Cache miss at [0xf90c20, line 0xf90c00]
160565985000: system.ruby.cp_cntrl0.sequencer: Cache miss at [0xc62610, line 0xc62600]
160565987000: system.ruby.cp_cntrl0.sequencer: Cache miss at [0x13a7710, line 0x13a7700]
160565989000: system.ruby.cp_cntrl0.sequencer: Cache miss at [0x13a7710, line 0x13a7700]
160565991000: system.ruby.cp_cntrl0.sequencer: Cache miss at [0x13a7718, line 0x13a7700]
160565993000: system.ruby.cp_cntrl0.sequencer: Cache miss at [0x13a7718, line 0x13a7700]
160565995000: system.ruby.cp_cntrl0.sequencer: Cache miss at [0x13a7718, line 0x13a7700]
160565997000: system.ruby.cp_cntrl0.sequencer: Cache miss at [0x13a7720, line 0x13a7700]
160565999000: system.ruby.cp_cntrl0.sequencer: Cache miss at [0x13a7720, line 0x13a7700]
160566001000: system.ruby.cp_cntrl0.sequencer: Cache miss at [0x13a7720, line 0x13a7700]
160566003000: system.ruby.cp_cntrl0.sequencer: Cache miss at [0x38a68, line 0x38a40]
160566005000: system.ruby.cp_cntrl0.sequencer: Cache miss at [0x3fa8740, line 0x3fa8740]
160566007000: system.ruby.cp_cntrl0.sequencer: Cache miss at [0x10dfae8, line 0x10dfac0]
160566009000: system.ruby.cp_cntrl0.sequencer: Cache miss at [0x3fa8748, line 0x3fa8740]
160566011000: system.ruby.cp_cntrl0.sequencer: Cache miss at [0x3fa8748, line 0x3fa8740]
160566013000: system.ruby.cp_cntrl1.sequencer: Cache hit at [0x10d5bc8, line 0x10d5bc0]
160566013000: system.ruby.cp_cntrl0.sequencer: Cache miss at [0x3fa8740, line 0x3fa8740]
160566015000: system.ruby.cp_cntrl0.sequencer: Cache miss at [0x38a68, line 0x38a40]
160566015000: system.ruby.cp_cntrl1.sequencer: Cache miss at [0x138bf90, line 0x138bf80]
160566017000: system.ruby.cp_cntrl1.sequencer: Cache miss at [0x138bf90, line 0x138bf80]
160566017000: system.ruby.cp_cntrl0.sequencer: Cache miss at [0xfaa3f0, line 0xfaa3c0]
160566019000: system.ruby.cp_cntrl0.sequencer: Cache miss at [0xfaa3f0, line 0xfaa3c0]
160566019000: system.ruby.cp_cntrl1.sequencer: Cache miss at [0x138bf98, line 0x138bf80]
160566021000: system.ruby.cp_cntrl1.sequencer: Cache miss at [0x10d5bd0, line 0x10d5bc0]
160566021000: system.ruby.cp_cntrl0.sequencer: Cache miss at [0xfaa3f8, line 0xfaa3c0]
160566023000: system.ruby.cp_cntrl0.sequencer: Cache miss at [0xf90c20, line 0xf90c00]
160566023000: system.ruby.cp_cntrl1.sequencer: Cache miss at [0x138bf98, line 0x138bf80]
160566025000: system.ruby.cp_cntrl1.sequencer: Cache miss at [0x138bf98, line 0x138bf80]
160566025000: system.ruby.cp_cntrl0.sequencer: Cache miss at [0xc62610, line 0xc62600]
160566027000: system.ruby.cp_cntrl1.sequencer: Cache miss at [0x138bfa0, line 0x138bf80]
160566027000: system.ruby.cp_cntrl0.sequencer: Cache miss at [0x13a7710, line 0x13a7700]
160566029000: system.ruby.cp_cntrl0.sequencer: Cache miss at [0x13a7710, line 0x13a7700]
160566031000: system.ruby.cp_cntrl0.sequencer: Cache miss at [0x13a7718, line 0x13a7700]
160566033000: system.ruby.cp_cntrl0.sequencer: Cache miss at [0x13a7718, line 0x13a7700]
160566035000: system.ruby.cp_cntrl0.sequencer: Cache miss at [0x13a7718, line 0x13a7700]
160566037000: system.ruby.cp_cntrl0.sequencer: Cache miss at [0x13a7720, line 0x13a7700]
160566039000: system.ruby.cp_cntrl0.sequencer: Cache miss at [0x13a7720, line 0x13a7700]
160566041000: system.ruby.cp_cntrl0.sequencer: Cache miss at [0x13a7720, line 0x13a7700]
160566043000: system.ruby.cp_cntrl0.sequencer: Cache miss at [0x38a68, line 0x38a40]
160566045000: system.ruby.cp_cntrl0.sequencer: Cache miss at [0x3fa8740, line 0x3fa8740]
160566047000: system.ruby.cp_cntrl0.sequencer: Cache miss at [0x10dfae8, line 0x10dfac0]
160566049000: system.ruby.cp_cntrl0.sequencer: Cache miss at [0x3fa8748, line 0x3fa8740]
160566051000: system.ruby.cp_cntrl0.sequencer: Cache miss at [0x3fa8748, line 0x3fa8740]
160566053000: system.ruby.cp_cntrl0.sequencer: Cache miss at [0x3fa8740, line 0x3fa8740]
160566055000: system.ruby.cp_cntrl0.sequencer: Cache miss at [0x38a68, line 0x38a40]
160566057000: system.ruby.cp_cntrl0.sequencer: Cache miss at [0xfaa3f0, line 0xfaa3c0]
160566059000: system.ruby.cp_cntrl0.sequencer: Cache miss at [0xfaa3f0, line 0xfaa3c0]
160566061000: system.ruby.cp_cntrl0.sequencer: Cache miss at [0xfaa3f8, line 0xfaa3c0]
160566063000: system.ruby.cp_cntrl0.sequencer: Cache miss at [0xf90c20, line 0xf90c00]
160566065000: system.ruby.cp_cntrl0.sequencer: Cache miss at [0xc62610, line 0xc62600]
160566067000: system.ruby.cp_cntrl0.sequencer: Cache miss at [0x13a7710, line 0x13a7700]
160566069000: system.ruby.cp_cntrl0.sequencer: Cache miss at [0x13a7710, line 0x13a7700]
160566071000: system.ruby.cp_cntrl0.sequencer: Cache miss at [0x13a7718, line 0x13a7700]
160566073000: system.ruby.cp_cntrl0.sequencer: Cache miss at [0x13a7718, line 0x13a7700]
160566075000: system.ruby.cp_cntrl0.sequencer: Cache miss at [0x13a7718, line 0x13a7700]
160566077000: system.ruby.cp_cntrl0.sequencer: Cache miss at [0x13a7720, line 0x13a7700]
160566079000: system.ruby.cp_cntrl0.sequencer: Cache miss at [0x13a7720, line 0x13a7700]
160566081000: system.ruby.cp_cntrl0.sequencer: Cache miss at [0x13a7720, line 0x13a7700]
160566083000: system.ruby.cp_cntrl0.sequencer: Cache miss at [0x38a68, line 0x38a40]
160566085000: system.ruby.cp_cntrl0.sequencer: Cache miss at [0x3fa8740, line 0x3fa8740]
160566087000: system.ruby.cp_cntrl0.sequencer: Cache miss at [0x10dfae8, line 0x10dfac0]
160566089000: system.ruby.cp_cntrl0.sequencer: Cache miss at [0x3fa8748, line 0x3fa8740]
160566091000: system.ruby.cp_cntrl0.sequencer: Cache miss at [0x3fa8748, line 0x3fa8740]
160566093000: system.ruby.cp_cntrl0.sequencer: Cache miss at [0x3fa8740, line 0x3fa8740]
160566095000: system.ruby.cp_cntrl0.sequencer: Cache miss at [0x38a68, line 0x38a40]
160566097000: system.ruby.cp_cntrl0.sequencer: Cache miss at [0xfaa3f0, line 0xfaa3c0]
160566099000: system.ruby.cp_cntrl0.sequencer: Cache miss at [0xfaa3f0, line 0xfaa3c0]
160566101000: system.ruby.cp_cntrl0.sequencer: Cache miss at [0xfaa3f8, line 0xfaa3c0]
160566103000: system.ruby.cp_cntrl0.sequencer: Cache miss at [0xf90c20, line 0xf90c00]
160566105000: system.ruby.cp_cntrl0.sequencer: Cache miss at [0xc62610, line 0xc62600]
160566107000: system.ruby.cp_cntrl0.sequencer: Cache miss at [0x13a7710, line 0x13a7700]
160566109000: system.ruby.cp_cntrl0.sequencer: Cache miss at [0x13a7710, line 0x13a7700]
160566111000: system.ruby.cp_cntrl0.sequencer: Cache miss at [0x13a7718, line 0x13a7700]
160566113000: system.ruby.cp_cntrl0.sequencer: Cache miss at [0x13a7718, line 0x13a7700]
160566115000: system.ruby.cp_cntrl0.sequencer: Cache miss at [0x13a7718, line 0x13a7700]
160566117000: system.ruby.cp_cntrl0.sequencer: Cache miss at [0x13a7720, line 0x13a7700]
160566119000: system.ruby.cp_cntrl0.sequencer: Cache miss at [0x13a7720, line 0x13a7700]
160566121000: system.ruby.cp_cntrl0.sequencer: Cache miss at [0x13a7720, line 0x13a7700]
160566123000: system.ruby.cp_cntrl0.sequencer: Cache miss at [0x38a68, line 0x38a40]
160566125000: system.ruby.cp_cntrl0.sequencer: Cache miss at [0x3fa8740, line 0x3fa8740]
160566127000: system.ruby.cp_cntrl0.sequencer: Cache miss at [0x10dfae8, line 0x10dfac0]
160566129000: system.ruby.cp_cntrl0.sequencer: Cache miss at [0x3fa8748, line 0x3fa8740]
160566131000: system.ruby.cp_cntrl0.sequencer: Cache miss at [0x3fa8748, line 0x3fa8740]
160566133000: system.ruby.cp_cntrl0.sequencer: Cache miss at [0x3fa8740, line 0x3fa8740]
160566135000: system.ruby.cp_cntrl0.sequencer: Cache miss at [0x38a68, line 0x38a40]
160566137000: system.ruby.cp_cntrl0.sequencer: Cache miss at [0xfaa3f0, line 0xfaa3c0]
160566139000: system.ruby.cp_cntrl0.sequencer: Cache miss at [0xfaa3f0, line 0xfaa3c0]
160566141000: system.ruby.cp_cntrl0.sequencer: Cache miss at [0xfaa3f8, line 0xfaa3c0]
160566143000: system.ruby.cp_cntrl0.sequencer: Cache miss at [0xf90c20, line 0xf90c00]
160566145000: system.ruby.cp_cntrl0.sequencer: Cache miss at [0xc62610, line 0xc62600]
160566147000: system.ruby.cp_cntrl0.sequencer: Cache miss at [0x13a7710, line 0x13a7700]
160566149000: system.ruby.cp_cntrl0.sequencer: Cache miss at [0x13a7710, line 0x13a7700]
160566151000: system.ruby.cp_cntrl0.sequencer: Cache miss at [0x13a7718, line 0x13a7700]
160566153000: system.ruby.cp_cntrl0.sequencer: Cache miss at [0x13a7718, line 0x13a7700]
160566155000: system.ruby.cp_cntrl0.sequencer: Cache miss at [0x13a7718, line 0x13a7700]
160566157000: system.ruby.cp_cntrl0.sequencer: Cache miss at [0x13a7720, line 0x13a7700]
160566159000: system.ruby.cp_cntrl0.sequencer: Cache miss at [0x13a7720, line 0x13a7700]
160566161000: system.ruby.cp_cntrl0.sequencer: Cache miss at [0x13a7720, line 0x13a7700]
160566163000: system.ruby.cp_cntrl0.sequencer: Cache miss at [0x38a68, line 0x38a40]
160566165000: system.ruby.cp_cntrl0.sequencer: Cache miss at [0x3fa8740, line 0x3fa8740]
160566167000: system.ruby.cp_cntrl0.sequencer: Cache miss at [0x10dfae8, line 0x10dfac0]
160566169000: system.ruby.cp_cntrl0.sequencer: Cache miss at [0x3fa8748, line 0x3fa8740]
160566171000: system.ruby.cp_cntrl0.sequencer: Cache miss at [0x3fa8748, line 0x3fa8740]
160566173000: system.ruby.cp_cntrl0.sequencer: Cache miss at [0x3fa8740, line 0x3fa8740]
160566175000: system.ruby.cp_cntrl0.sequencer: Cache miss at [0x38a68, line 0x38a40]
160566177000: system.ruby.cp_cntrl0.sequencer: Cache miss at [0xfaa3f0, line 0xfaa3c0]
160566179000: system.ruby.cp_cntrl0.sequencer: Cache miss at [0xfaa3f0, line 0xfaa3c0]
160566181000: system.ruby.cp_cntrl0.sequencer: Cache miss at [0xfaa3f8, line 0xfaa3c0]
160566183000: system.ruby.cp_cntrl0.sequencer: Cache miss at [0xf90c20, line 0xf90c00]
160566185000: system.ruby.cp_cntrl0.sequencer: Cache miss at [0xc62610, line 0xc62600]
160566187000: system.ruby.cp_cntrl0.sequencer: Cache miss at [0x13a7710, line 0x13a7700]
160566189000: system.ruby.cp_cntrl0.sequencer: Cache miss at [0x13a7710, line 0x13a7700]
160566191000: system.ruby.cp_cntrl0.sequencer: Cache miss at [0x13a7718, line 0x13a7700]
160566193000: system.ruby.cp_cntrl0.sequencer: Cache miss at [0x13a7718, line 0x13a7700]
160566195000: system.ruby.cp_cntrl0.sequencer: Cache miss at [0x13a7718, line 0x13a7700]
160566197000: system.ruby.cp_cntrl0.sequencer: Cache miss at [0x13a7720, line 0x13a7700]
160566199000: system.ruby.cp_cntrl0.sequencer: Cache miss at [0x13a7720, line 0x13a7700]
160566201000: system.ruby.cp_cntrl0.sequencer: Cache miss at [0x13a7720, line 0x13a7700]
160566203000: system.ruby.cp_cntrl0.sequencer: Cache miss at [0x38a68, line 0x38a40]
160566205000: system.ruby.cp_cntrl0.sequencer: Cache miss at [0x3fa8740, line 0x3fa8740]
160566207000: system.ruby.cp_cntrl0.sequencer: Cache miss at [0x10dfae8, line 0x10dfac0]
160566209000: system.ruby.cp_cntrl0.sequencer: Cache miss at [0x3fa8748, line 0x3fa8740]
160566211000: system.ruby.cp_cntrl0.sequencer: Cache miss at [0x3fa8748, line 0x3fa8740]
160566213000: system.ruby.cp_cntrl0.sequencer: Cache miss at [0x3fa8740, line 0x3fa8740]
160566215000: system.ruby.cp_cntrl0.sequencer: Cache miss at [0x38a68, line 0x38a40]
160566217000: system.ruby.cp_cntrl0.sequencer: Cache miss at [0xfaa3f0, line 0xfaa3c0]
160566219000: system.ruby.cp_cntrl0.sequencer: Cache miss at [0xfaa3f0, line 0xfaa3c0]
160566221000: system.ruby.cp_cntrl0.sequencer: Cache miss at [0xfaa3f8, line 0xfaa3c0]
160566223000: system.ruby.cp_cntrl0.sequencer: Cache miss at [0xf90c20, line 0xf90c00]
160566225000: system.ruby.cp_cntrl0.sequencer: Cache miss at [0xc62610, line 0xc62600]
160566227000: system.ruby.cp_cntrl0.sequencer: Cache miss at [0x13a7710, line 0x13a7700]
160566229000: system.ruby.cp_cntrl0.sequencer: Cache miss at [0x13a7710, line 0x13a7700]
160566231000: system.ruby.cp_cntrl0.sequencer: Cache miss at [0x13a7718, line 0x13a7700]
160566233000: system.ruby.cp_cntrl0.sequencer: Cache miss at [0x13a7718, line 0x13a7700]
160566235000: system.ruby.cp_cntrl0.sequencer: Cache miss at [0x13a7718, line 0x13a7700]
160566237000: system.ruby.cp_cntrl0.sequencer: Cache miss at [0x13a7720, line 0x13a7700]
160566239000: system.ruby.cp_cntrl0.sequencer: Cache miss at [0x13a7720, line 0x13a7700]
160566241000: system.ruby.cp_cntrl0.sequencer: Cache miss at [0x13a7720, line 0x13a7700]
160566243000: system.ruby.cp_cntrl0.sequencer: Cache miss at [0x38a68, line 0x38a40]
160566245000: system.ruby.cp_cntrl0.sequencer: Cache miss at [0x3fa8740, line 0x3fa8740]
160566247000: system.ruby.cp_cntrl0.sequencer: Cache miss at [0x10dfae8, line 0x10dfac0]
160566249000: system.ruby.cp_cntrl0.sequencer: Cache miss at [0x3fa8748, line 0x3fa8740]
160566251000: system.ruby.cp_cntrl0.sequencer: Cache miss at [0x3fa8748, line 0x3fa8740]
160566253000: system.ruby.cp_cntrl0.sequencer: Cache miss at [0x3fa8740, line 0x3fa8740]
160566255000: system.ruby.cp_cntrl0.sequencer: Cache miss at [0x38a68, line 0x38a40]
160566257000: system.ruby.cp_cntrl0.sequencer: Cache miss at [0xfaa3f0, line 0xfaa3c0]
160566259000: system.ruby.cp_cntrl0.sequencer: Cache miss at [0xfaa3f0, line 0xfaa3c0]
160566261000: system.ruby.cp_cntrl0.sequencer: Cache miss at [0xfaa3f8, line 0xfaa3c0]
160566263000: system.ruby.cp_cntrl0.sequencer: Cache miss at [0xf90c20, line 0xf90c00]
160566265000: system.ruby.cp_cntrl0.sequencer: Cache miss at [0xc62610, line 0xc62600]
160566267000: system.ruby.cp_cntrl0.sequencer: Cache miss at [0x13a7710, line 0x13a7700]
160566269000: system.ruby.cp_cntrl0.sequencer: Cache miss at [0x13a7710, line 0x13a7700]
160566271000: system.ruby.cp_cntrl0.sequencer: Cache miss at [0x13a7718, line 0x13a7700]
160566273000: system.ruby.cp_cntrl0.sequencer: Cache miss at [0x13a7718, line 0x13a7700]
160566275000: system.ruby.cp_cntrl0.sequencer: Cache miss at [0x13a7718, line 0x13a7700]
160566277000: system.ruby.cp_cntrl0.sequencer: Cache miss at [0x13a7720, line 0x13a7700]
160566279000: system.ruby.cp_cntrl0.sequencer: Cache miss at [0x13a7720, line 0x13a7700]
160566281000: system.ruby.cp_cntrl0.sequencer: Cache miss at [0x13a7720, line 0x13a7700]
160566283000: system.ruby.cp_cntrl0.sequencer: Cache miss at [0x38a68, line 0x38a40]
160566285000: system.ruby.cp_cntrl0.sequencer: Cache miss at [0x3fa8740, line 0x3fa8740]
160566287000: system.ruby.cp_cntrl0.sequencer: Cache miss at [0x10dfae8, line 0x10dfac0]
160566289000: system.ruby.cp_cntrl0.sequencer: Cache miss at [0x3fa8748, line 0x3fa8740]
160566291000: system.ruby.cp_cntrl0.sequencer: Cache miss at [0x3fa8748, line 0x3fa8740]
160566293000: system.ruby.cp_cntrl0.sequencer: Cache miss at [0x3fa8740, line 0x3fa8740]
160566295000: system.ruby.cp_cntrl0.sequencer: Cache miss at [0x38a68, line 0x38a40]
160566297000: system.ruby.cp_cntrl0.sequencer: Cache miss at [0xfaa3f0, line 0xfaa3c0]
160566299000: system.ruby.cp_cntrl0.sequencer: Cache miss at [0xfaa3f0, line 0xfaa3c0]
160566301000: system.ruby.cp_cntrl0.sequencer: Cache miss at [0xfaa3f8, line 0xfaa3c0]
160566303000: system.ruby.cp_cntrl0.sequencer: Cache miss at [0xf90c20, line 0xf90c00]
160566305000: system.ruby.cp_cntrl0.sequencer: Cache miss at [0xc62610, line 0xc62600]
160566307000: system.ruby.cp_cntrl0.sequencer: Cache miss at [0x13a7710, line 0x13a7700]
160566309000: system.ruby.cp_cntrl0.sequencer: Cache miss at [0x13a7710, line 0x13a7700]
160566311000: system.ruby.cp_cntrl0.sequencer: Cache miss at [0x13a7718, line 0x13a7700]
160566313000: system.ruby.cp_cntrl0.sequencer: Cache miss at [0x13a7718, line 0x13a7700]
160566315000: system.ruby.cp_cntrl0.sequencer: Cache miss at [0x13a7718, line 0x13a7700]
160566317000: system.ruby.cp_cntrl0.sequencer: Cache miss at [0x13a7720, line 0x13a7700]
160566319000: system.ruby.cp_cntrl0.sequencer: Cache miss at [0x13a7720, line 0x13a7700]
160566321000: system.ruby.cp_cntrl0.sequencer: Cache miss at [0x13a7720, line 0x13a7700]
160566323000: system.ruby.cp_cntrl0.sequencer: Cache miss at [0x38a68, line 0x38a40]
160566325000: system.ruby.cp_cntrl0.sequencer: Cache miss at [0x3fa8740, line 0x3fa8740]
160566327000: system.ruby.cp_cntrl0.sequencer: Cache miss at [0x10dfae8, line 0x10dfac0]
160566329000: system.ruby.cp_cntrl0.sequencer: Cache miss at [0x3fa8748, line 0x3fa8740]
160566331000: system.ruby.cp_cntrl0.sequencer: Cache miss at [0x3fa8748, line 0x3fa8740]
160566333000: system.ruby.cp_cntrl0.sequencer: Cache miss at [0x3fa8740, line 0x3fa8740]
160566335000: system.ruby.cp_cntrl0.sequencer: Cache miss at [0x38a68, line 0x38a40]
160566337000: system.ruby.cp_cntrl0.sequencer: Cache miss at [0xfaa3f0, line 0xfaa3c0]
160566339000: system.ruby.cp_cntrl0.sequencer: Cache miss at [0xfaa3f0, line 0xfaa3c0]
160566341000: system.ruby.cp_cntrl0.sequencer: Cache miss at [0xfaa3f8, line 0xfaa3c0]
160566343000: system.ruby.cp_cntrl0.sequencer: Cache miss at [0xf90c20, line 0xf90c00]
160566345000: system.ruby.cp_cntrl0.sequencer: Cache miss at [0xc62610, line 0xc62600]
160566347000: system.ruby.cp_cntrl0.sequencer: Cache miss at [0x13a7710, line 0x13a7700]
160566348000: system.ruby.cp_cntrl1.sequencer: Cache hit at [0x10d9928, line 0x10d9900]
160566349000: system.ruby.cp_cntrl0.sequencer: Cache miss at [0x13a7710, line 0x13a7700]
160566350000: system.ruby.cp_cntrl1.sequencer: Cache miss at [0x138bfa0, line 0x138bf80]
160566351000: system.ruby.cp_cntrl0.sequencer: Cache miss at [0x13a7718, line 0x13a7700]
160566352000: system.ruby.cp_cntrl1.sequencer: Cache miss at [0x10d5bc8, line 0x10d5bc0]
160566353000: system.ruby.cp_cntrl0.sequencer: Cache miss at [0x13a7718, line 0x13a7700]
160566354000: system.ruby.cp_cntrl1.sequencer: Cache miss at [0x138bfa0, line 0x138bf80]
160566355000: system.ruby.cp_cntrl0.sequencer: Cache miss at [0x13a7718, line 0x13a7700]
160566356000: system.ruby.cp_cntrl1.sequencer: Cache miss at [0x138bfa8, line 0x138bf80]
160566357000: system.ruby.cp_cntrl0.sequencer: Cache miss at [0x13a7720, line 0x13a7700]
160566358000: system.ruby.cp_cntrl1.sequencer: Cache miss at [0x138bfa8, line 0x138bf80]
160566359000: system.ruby.cp_cntrl0.sequencer: Cache miss at [0x13a7720, line 0x13a7700]
160566360000: system.ruby.cp_cntrl1.sequencer: Cache miss at [0x138bfa8, line 0x138bf80]
160566361000: system.ruby.cp_cntrl0.sequencer: Cache miss at [0x13a7720, line 0x13a7700]
160566362000: system.ruby.cp_cntrl1.sequencer: Cache miss at [0x138bfb0, line 0x138bf80]
160566363000: system.ruby.cp_cntrl0.sequencer: Cache miss at [0x38a68, line 0x38a40]
160566364000: system.ruby.cp_cntrl1.sequencer: Cache miss at [0x138bfb0, line 0x138bf80]
160566365000: system.ruby.cp_cntrl0.sequencer: Cache miss at [0x3fa8740, line 0x3fa8740]
160566366000: system.ruby.cp_cntrl1.sequencer: Cache miss at [0x138bfb0, line 0x138bf80]
160566367000: system.ruby.cp_cntrl0.sequencer: Cache miss at [0x10dfae8, line 0x10dfac0]
160566368000: system.ruby.cp_cntrl1.sequencer: Cache miss at [0x138bfb8, line 0x138bf80]
160566369000: system.ruby.cp_cntrl0.sequencer: Cache miss at [0x3fa8748, line 0x3fa8740]
160566370000: system.ruby.cp_cntrl1.sequencer: Cache miss at [0x138bfb8, line 0x138bf80]
160566371000: system.ruby.cp_cntrl0.sequencer: Cache miss at [0x3fa8748, line 0x3fa8740]
160566372000: system.ruby.cp_cntrl1.sequencer: Cache miss at [0x138bfc0, line 0x138bfc0]
160566373000: system.ruby.cp_cntrl0.sequencer: Cache miss at [0x3fa8740, line 0x3fa8740]
160566374000: system.ruby.cp_cntrl1.sequencer: Cache miss at [0x138bfc0, line 0x138bfc0]
160566375000: system.ruby.cp_cntrl0.sequencer: Cache miss at [0x38a68, line 0x38a40]
160566377000: system.ruby.cp_cntrl0.sequencer: Cache miss at [0xfaa3f0, line 0xfaa3c0]
160566379000: system.ruby.cp_cntrl0.sequencer: Cache miss at [0xfaa3f0, line 0xfaa3c0]
160566381000: system.ruby.cp_cntrl0.sequencer: Cache miss at [0xfaa3f8, line 0xfaa3c0]
160566383000: system.ruby.cp_cntrl0.sequencer: Cache miss at [0xf90c20, line 0xf90c00]
160566385000: system.ruby.cp_cntrl0.sequencer: Cache miss at [0xc62610, line 0xc62600]
160566387000: system.ruby.cp_cntrl0.sequencer: Cache miss at [0x13a7710, line 0x13a7700]
160566389000: system.ruby.cp_cntrl0.sequencer: Cache miss at [0x13a7710, line 0x13a7700]
160566391000: system.ruby.cp_cntrl0.sequencer: Cache miss at [0x13a7718, line 0x13a7700]
160566393000: system.ruby.cp_cntrl0.sequencer: Cache miss at [0x13a7718, line 0x13a7700]
160566395000: system.ruby.cp_cntrl0.sequencer: Cache miss at [0x13a7718, line 0x13a7700]
160566397000: system.ruby.cp_cntrl0.sequencer: Cache miss at [0x13a7720, line 0x13a7700]
160566399000: system.ruby.cp_cntrl0.sequencer: Cache miss at [0x13a7720, line 0x13a7700]
160566401000: system.ruby.cp_cntrl0.sequencer: Cache miss at [0x13a7720, line 0x13a7700]
160566403000: system.ruby.cp_cntrl0.sequencer: Cache miss at [0x38a68, line 0x38a40]
160566405000: system.ruby.cp_cntrl0.sequencer: Cache miss at [0x3fa8740, line 0x3fa8740]
160566407000: system.ruby.cp_cntrl0.sequencer: Cache miss at [0x10dfae8, line 0x10dfac0]
160566409000: system.ruby.cp_cntrl0.sequencer: Cache miss at [0x3fa8748, line 0x3fa8740]
160566411000: system.ruby.cp_cntrl0.sequencer: Cache miss at [0x3fa8748, line 0x3fa8740]
160566413000: system.ruby.cp_cntrl0.sequencer: Cache miss at [0x3fa8740, line 0x3fa8740]
160566415000: system.ruby.cp_cntrl0.sequencer: Cache miss at [0x38a68, line 0x38a40]
160566417000: system.ruby.cp_cntrl0.sequencer: Cache miss at [0xfaa3f0, line 0xfaa3c0]
160566417300: system.ruby.sqc_cntrl0.sequencer: Cache hit at [0x401d000, line 0x401d000]
160566419000: system.ruby.cp_cntrl0.sequencer: Cache miss at [0xfaa3f0, line 0xfaa3c0]
160566421000: system.ruby.cp_cntrl0.sequencer: Cache miss at [0xfaa3f8, line 0xfaa3c0]
160566423000: system.ruby.cp_cntrl0.sequencer: Cache miss at [0xf90c20, line 0xf90c00]
160566425000: system.ruby.cp_cntrl0.sequencer: Cache miss at [0xc62610, line 0xc62600]
160566427000: system.ruby.cp_cntrl0.sequencer: Cache miss at [0x13a7710, line 0x13a7700]
160566429000: system.ruby.cp_cntrl0.sequencer: Cache miss at [0x13a7710, line 0x13a7700]
160566431000: system.ruby.cp_cntrl0.sequencer: Cache miss at [0x13a7718, line 0x13a7700]
160566433000: system.ruby.cp_cntrl0.sequencer: Cache miss at [0x13a7718, line 0x13a7700]
160566435000: system.ruby.cp_cntrl0.sequencer: Cache miss at [0x13a7718, line 0x13a7700]
160566437000: system.ruby.cp_cntrl0.sequencer: Cache miss at [0x13a7720, line 0x13a7700]
160566439000: system.ruby.cp_cntrl0.sequencer: Cache miss at [0x13a7720, line 0x13a7700]
160566441000: system.ruby.cp_cntrl0.sequencer: Cache miss at [0x13a7720, line 0x13a7700]
160566443000: system.ruby.cp_cntrl0.sequencer: Cache miss at [0x38a68, line 0x38a40]
160566445000: system.ruby.cp_cntrl0.sequencer: Cache miss at [0x3fa8740, line 0x3fa8740]
160566447000: system.ruby.cp_cntrl0.sequencer: Cache miss at [0x10dfae8, line 0x10dfac0]
160566449000: system.ruby.cp_cntrl0.sequencer: Cache miss at [0x3fa8748, line 0x3fa8740]
160566451000: system.ruby.cp_cntrl0.sequencer: Cache miss at [0x3fa8748, line 0x3fa8740]
160566453000: system.ruby.cp_cntrl0.sequencer: Cache miss at [0x3fa8740, line 0x3fa8740]
160566455000: system.ruby.cp_cntrl0.sequencer: Cache miss at [0x38a68, line 0x38a40]
160566457000: system.ruby.cp_cntrl0.sequencer: Cache miss at [0xfaa3f0, line 0xfaa3c0]
160566459000: system.ruby.cp_cntrl0.sequencer: Cache miss at [0xfaa3f0, line 0xfaa3c0]
160566461000: system.ruby.cp_cntrl0.sequencer: Cache miss at [0xfaa3f8, line 0xfaa3c0]
160566463000: system.ruby.cp_cntrl0.sequencer: Cache miss at [0xf90c20, line 0xf90c00]
160566465000: system.ruby.cp_cntrl0.sequencer: Cache miss at [0xc62610, line 0xc62600]
160566467000: system.ruby.cp_cntrl0.sequencer: Cache miss at [0x13a7710, line 0x13a7700]
160566469000: system.ruby.cp_cntrl0.sequencer: Cache miss at [0x13a7710, line 0x13a7700]
160566471000: system.ruby.cp_cntrl0.sequencer: Cache miss at [0x13a7718, line 0x13a7700]
160566473000: system.ruby.cp_cntrl0.sequencer: Cache miss at [0x13a7718, line 0x13a7700]
160566475000: system.ruby.cp_cntrl0.sequencer: Cache miss at [0x13a7718, line 0x13a7700]
160566477000: system.ruby.cp_cntrl0.sequencer: Cache miss at [0x13a7720, line 0x13a7700]
160566479000: system.ruby.cp_cntrl0.sequencer: Cache miss at [0x13a7720, line 0x13a7700]
160566481000: system.ruby.cp_cntrl0.sequencer: Cache miss at [0x13a7720, line 0x13a7700]
160566483000: system.ruby.cp_cntrl0.sequencer: Cache miss at [0x38a68, line 0x38a40]
160566485000: system.ruby.cp_cntrl0.sequencer: Cache miss at [0x3fa8740, line 0x3fa8740]
160566487000: system.ruby.cp_cntrl0.sequencer: Cache miss at [0x10dfae8, line 0x10dfac0]
160566489000: system.ruby.cp_cntrl0.sequencer: Cache miss at [0x3fa8748, line 0x3fa8740]
160566491000: system.ruby.cp_cntrl0.sequencer: Cache miss at [0x3fa8748, line 0x3fa8740]
160566493000: system.ruby.cp_cntrl0.sequencer: Cache miss at [0x3fa8740, line 0x3fa8740]
160566495000: system.ruby.cp_cntrl0.sequencer: Cache miss at [0x38a68, line 0x38a40]
160566497000: system.ruby.cp_cntrl0.sequencer: Cache miss at [0xfaa3f0, line 0xfaa3c0]
160566499000: system.ruby.cp_cntrl0.sequencer: Cache miss at [0xfaa3f0, line 0xfaa3c0]
160566501000: system.ruby.cp_cntrl0.sequencer: Cache miss at [0xfaa3f8, line 0xfaa3c0]
160566503000: system.ruby.cp_cntrl0.sequencer: Cache miss at [0xf90c20, line 0xf90c00]
160566505000: system.ruby.cp_cntrl0.sequencer: Cache miss at [0xc62610, line 0xc62600]
160566507000: system.ruby.cp_cntrl0.sequencer: Cache miss at [0x13a7710, line 0x13a7700]
160566509000: system.ruby.cp_cntrl0.sequencer: Cache miss at [0x13a7710, line 0x13a7700]
160566511000: system.ruby.cp_cntrl0.sequencer: Cache miss at [0x13a7718, line 0x13a7700]
160566513000: system.ruby.cp_cntrl0.sequencer: Cache miss at [0x13a7718, line 0x13a7700]
160566515000: system.ruby.cp_cntrl0.sequencer: Cache miss at [0x13a7718, line 0x13a7700]
160566517000: system.ruby.cp_cntrl0.sequencer: Cache miss at [0x13a7720, line 0x13a7700]
160566519000: system.ruby.cp_cntrl0.sequencer: Cache miss at [0x13a7720, line 0x13a7700]
160566521000: system.ruby.cp_cntrl0.sequencer: Cache miss at [0x13a7720, line 0x13a7700]
160566523000: system.ruby.cp_cntrl0.sequencer: Cache miss at [0x38a68, line 0x38a40]
160566525000: system.ruby.cp_cntrl0.sequencer: Cache miss at [0x3fa8740, line 0x3fa8740]
160566527000: system.ruby.cp_cntrl0.sequencer: Cache miss at [0x10dfae8, line 0x10dfac0]
160566529000: system.ruby.cp_cntrl0.sequencer: Cache miss at [0x3fa8748, line 0x3fa8740]
160566531000: system.ruby.cp_cntrl0.sequencer: Cache miss at [0x3fa8748, line 0x3fa8740]
160566533000: system.ruby.cp_cntrl0.sequencer: Cache miss at [0x3fa8740, line 0x3fa8740]
160566535000: system.ruby.cp_cntrl0.sequencer: Cache miss at [0x38a68, line 0x38a40]
160566537000: system.ruby.cp_cntrl0.sequencer: Cache miss at [0xfaa3f0, line 0xfaa3c0]
160566539000: system.ruby.cp_cntrl0.sequencer: Cache miss at [0xfaa3f0, line 0xfaa3c0]
160566541000: system.ruby.cp_cntrl0.sequencer: Cache miss at [0xfaa3f8, line 0xfaa3c0]
160566543000: system.ruby.cp_cntrl0.sequencer: Cache miss at [0xf90c20, line 0xf90c00]
160566545000: system.ruby.cp_cntrl0.sequencer: Cache miss at [0xc62610, line 0xc62600]
160566547000: system.ruby.cp_cntrl0.sequencer: Cache miss at [0x13a7710, line 0x13a7700]
160566549000: system.ruby.cp_cntrl0.sequencer: Cache miss at [0x13a7710, line 0x13a7700]
160566551000: system.ruby.cp_cntrl0.sequencer: Cache miss at [0x13a7718, line 0x13a7700]
160566553000: system.ruby.cp_cntrl0.sequencer: Cache miss at [0x13a7718, line 0x13a7700]
160566555000: system.ruby.cp_cntrl0.sequencer: Cache miss at [0x13a7718, line 0x13a7700]
160566557000: system.ruby.cp_cntrl0.sequencer: Cache miss at [0x13a7720, line 0x13a7700]
160566559000: system.ruby.cp_cntrl0.sequencer: Cache miss at [0x13a7720, line 0x13a7700]
160566561000: system.ruby.cp_cntrl0.sequencer: Cache miss at [0x13a7720, line 0x13a7700]
160566563000: system.ruby.cp_cntrl0.sequencer: Cache miss at [0x38a68, line 0x38a40]
160566565000: system.ruby.cp_cntrl0.sequencer: Cache miss at [0x3fa8740, line 0x3fa8740]
160566567000: system.ruby.cp_cntrl0.sequencer: Cache miss at [0x10dfae8, line 0x10dfac0]
160566569000: system.ruby.cp_cntrl0.sequencer: Cache miss at [0x3fa8748, line 0x3fa8740]
160566571000: system.ruby.cp_cntrl0.sequencer: Cache miss at [0x3fa8748, line 0x3fa8740]
160566573000: system.ruby.cp_cntrl0.sequencer: Cache miss at [0x3fa8740, line 0x3fa8740]
160566575000: system.ruby.cp_cntrl0.sequencer: Cache miss at [0x38a68, line 0x38a40]
160566577000: system.ruby.cp_cntrl0.sequencer: Cache miss at [0xfaa3f0, line 0xfaa3c0]
160566579000: system.ruby.cp_cntrl0.sequencer: Cache miss at [0xfaa3f0, line 0xfaa3c0]
160566581000: system.ruby.cp_cntrl0.sequencer: Cache miss at [0xfaa3f8, line 0xfaa3c0]
160566583000: system.ruby.cp_cntrl0.sequencer: Cache miss at [0xf90c20, line 0xf90c00]
160566585000: system.ruby.cp_cntrl0.sequencer: Cache miss at [0xc62610, line 0xc62600]
160566587000: system.ruby.cp_cntrl0.sequencer: Cache miss at [0x13a7710, line 0x13a7700]
160566589000: system.ruby.cp_cntrl0.sequencer: Cache miss at [0x13a7710, line 0x13a7700]
160566591000: system.ruby.cp_cntrl0.sequencer: Cache miss at [0x13a7718, line 0x13a7700]
160566593000: system.ruby.cp_cntrl0.sequencer: Cache miss at [0x13a7718, line 0x13a7700]
160566595000: system.ruby.cp_cntrl0.sequencer: Cache miss at [0x13a7718, line 0x13a7700]
160566597000: system.ruby.cp_cntrl0.sequencer: Cache miss at [0x13a7720, line 0x13a7700]
160566599000: system.ruby.cp_cntrl0.sequencer: Cache miss at [0x13a7720, line 0x13a7700]
160566601000: system.ruby.cp_cntrl0.sequencer: Cache miss at [0x13a7720, line 0x13a7700]
160566603000: system.ruby.cp_cntrl0.sequencer: Cache miss at [0x38a68, line 0x38a40]
160566605000: system.ruby.cp_cntrl0.sequencer: Cache miss at [0x3fa8740, line 0x3fa8740]
160566607000: system.ruby.cp_cntrl0.sequencer: Cache miss at [0x10dfae8, line 0x10dfac0]
160566609000: system.ruby.cp_cntrl0.sequencer: Cache miss at [0x3fa8748, line 0x3fa8740]
160566611000: system.ruby.cp_cntrl0.sequencer: Cache miss at [0x3fa8748, line 0x3fa8740]
160566613000: system.ruby.cp_cntrl0.sequencer: Cache miss at [0x3fa8740, line 0x3fa8740]
160566615000: system.ruby.cp_cntrl0.sequencer: Cache miss at [0x38a68, line 0x38a40]
160566617000: system.ruby.cp_cntrl0.sequencer: Cache miss at [0xfaa3f0, line 0xfaa3c0]
160566619000: system.ruby.cp_cntrl0.sequencer: Cache miss at [0xfaa3f0, line 0xfaa3c0]
160566621000: system.ruby.cp_cntrl0.sequencer: Cache miss at [0xfaa3f8, line 0xfaa3c0]
160566623000: system.ruby.cp_cntrl0.sequencer: Cache miss at [0xf90c20, line 0xf90c00]
160566625000: system.ruby.cp_cntrl0.sequencer: Cache miss at [0xc62610, line 0xc62600]
160566627000: system.ruby.cp_cntrl0.sequencer: Cache miss at [0x13a7710, line 0x13a7700]
160566629000: system.ruby.cp_cntrl0.sequencer: Cache miss at [0x13a7710, line 0x13a7700]
160566631000: system.ruby.cp_cntrl0.sequencer: Cache miss at [0x13a7718, line 0x13a7700]
160566633000: system.ruby.cp_cntrl0.sequencer: Cache miss at [0x13a7718, line 0x13a7700]
160566635000: system.ruby.cp_cntrl0.sequencer: Cache miss at [0x13a7718, line 0x13a7700]
160566637000: system.ruby.cp_cntrl0.sequencer: Cache miss at [0x13a7720, line 0x13a7700]
160566639000: system.ruby.cp_cntrl0.sequencer: Cache miss at [0x13a7720, line 0x13a7700]
160566641000: system.ruby.cp_cntrl0.sequencer: Cache miss at [0x13a7720, line 0x13a7700]
160566643000: system.ruby.cp_cntrl0.sequencer: Cache miss at [0x38a68, line 0x38a40]
160566645000: system.ruby.cp_cntrl0.sequencer: Cache miss at [0x3fa8740, line 0x3fa8740]
160566647000: system.ruby.cp_cntrl0.sequencer: Cache miss at [0x10dfae8, line 0x10dfac0]
160566649000: system.ruby.cp_cntrl0.sequencer: Cache miss at [0x3fa8748, line 0x3fa8740]
160566651000: system.ruby.cp_cntrl0.sequencer: Cache miss at [0x3fa8748, line 0x3fa8740]
160566653000: system.ruby.cp_cntrl0.sequencer: Cache miss at [0x3fa8740, line 0x3fa8740]
160566655000: system.ruby.cp_cntrl0.sequencer: Cache miss at [0x38a68, line 0x38a40]
160566657000: system.ruby.cp_cntrl0.sequencer: Cache miss at [0xfaa3f0, line 0xfaa3c0]
160566659000: system.ruby.cp_cntrl0.sequencer: Cache miss at [0xfaa3f0, line 0xfaa3c0]
160566661000: system.ruby.cp_cntrl0.sequencer: Cache miss at [0xfaa3f8, line 0xfaa3c0]
160566663000: system.ruby.cp_cntrl0.sequencer: Cache miss at [0xf90c20, line 0xf90c00]
160566665000: system.ruby.cp_cntrl0.sequencer: Cache miss at [0xc62610, line 0xc62600]
160566667000: system.ruby.cp_cntrl0.sequencer: Cache miss at [0x13a7710, line 0x13a7700]
160566669000: system.ruby.cp_cntrl0.sequencer: Cache miss at [0x13a7710, line 0x13a7700]
160566671000: system.ruby.cp_cntrl0.sequencer: Cache miss at [0x13a7718, line 0x13a7700]
160566673000: system.ruby.cp_cntrl0.sequencer: Cache miss at [0x13a7718, line 0x13a7700]
160566675000: system.ruby.cp_cntrl0.sequencer: Cache miss at [0x13a7718, line 0x13a7700]
160566677000: system.ruby.cp_cntrl0.sequencer: Cache miss at [0x13a7720, line 0x13a7700]
160566679000: system.ruby.cp_cntrl0.sequencer: Cache miss at [0x13a7720, line 0x13a7700]
160566681000: system.ruby.cp_cntrl0.sequencer: Cache miss at [0x13a7720, line 0x13a7700]
160566683000: system.ruby.cp_cntrl0.sequencer: Cache miss at [0x38a68, line 0x38a40]
160566685000: system.ruby.cp_cntrl0.sequencer: Cache miss at [0x3fa8740, line 0x3fa8740]
160566687000: system.ruby.cp_cntrl0.sequencer: Cache miss at [0x10dfae8, line 0x10dfac0]
160566689000: system.ruby.cp_cntrl0.sequencer: Cache miss at [0x3fa8748, line 0x3fa8740]
160566691000: system.ruby.cp_cntrl0.sequencer: Cache miss at [0x3fa8748, line 0x3fa8740]
160566693000: system.ruby.cp_cntrl1.sequencer: Cache hit at [0x10dfc20, line 0x10dfc00]
160566693000: system.ruby.cp_cntrl0.sequencer: Cache miss at [0x3fa8740, line 0x3fa8740]
160566695000: system.ruby.cp_cntrl0.sequencer: Cache miss at [0x38a68, line 0x38a40]
160566695000: system.ruby.cp_cntrl1.sequencer: Cache miss at [0x138bfc0, line 0x138bfc0]
160566697000: system.ruby.cp_cntrl1.sequencer: Cache miss at [0x138bfc8, line 0x138bfc0]
160566697000: system.ruby.cp_cntrl0.sequencer: Cache miss at [0xfaa3f0, line 0xfaa3c0]
160566699000: system.ruby.cp_cntrl0.sequencer: Cache miss at [0xfaa3f0, line 0xfaa3c0]
160566699000: system.ruby.cp_cntrl1.sequencer: Cache miss at [0x138bfc8, line 0x138bfc0]
160566701000: system.ruby.cp_cntrl0.sequencer: Cache miss at [0xfaa3f8, line 0xfaa3c0]
160566703000: system.ruby.cp_cntrl0.sequencer: Cache miss at [0xf90c20, line 0xf90c00]
160566705000: system.ruby.cp_cntrl0.sequencer: Cache miss at [0xc62610, line 0xc62600]
160566707000: system.ruby.cp_cntrl0.sequencer: Cache miss at [0x13a7710, line 0x13a7700]
160566709000: system.ruby.cp_cntrl0.sequencer: Cache miss at [0x13a7710, line 0x13a7700]
160566711000: system.ruby.cp_cntrl0.sequencer: Cache miss at [0x13a7718, line 0x13a7700]
160566713000: system.ruby.cp_cntrl0.sequencer: Cache miss at [0x13a7718, line 0x13a7700]
160566715000: system.ruby.cp_cntrl0.sequencer: Cache miss at [0x13a7718, line 0x13a7700]
160566717000: system.ruby.cp_cntrl0.sequencer: Cache miss at [0x13a7720, line 0x13a7700]
160566719000: system.ruby.cp_cntrl0.sequencer: Cache miss at [0x13a7720, line 0x13a7700]
160566721000: system.ruby.cp_cntrl0.sequencer: Cache miss at [0x13a7720, line 0x13a7700]
160566723000: system.ruby.cp_cntrl0.sequencer: Cache miss at [0x38a68, line 0x38a40]
160566725000: system.ruby.cp_cntrl0.sequencer: Cache miss at [0x3fa8740, line 0x3fa8740]
160566727000: system.ruby.cp_cntrl0.sequencer: Cache miss at [0x10dfae8, line 0x10dfac0]
160566729000: system.ruby.cp_cntrl0.sequencer: Cache miss at [0x3fa8748, line 0x3fa8740]
160566731000: system.ruby.cp_cntrl0.sequencer: Cache miss at [0x3fa8748, line 0x3fa8740]
160566733000: system.ruby.cp_cntrl0.sequencer: Cache miss at [0x3fa8740, line 0x3fa8740]
160566735000: system.ruby.cp_cntrl0.sequencer: Cache miss at [0x38a68, line 0x38a40]
160566737000: system.ruby.cp_cntrl0.sequencer: Cache miss at [0xfaa3f0, line 0xfaa3c0]
160566739000: system.ruby.cp_cntrl0.sequencer: Cache miss at [0xfaa3f0, line 0xfaa3c0]
160566741000: system.ruby.cp_cntrl0.sequencer: Cache miss at [0xfaa3f8, line 0xfaa3c0]
160566743000: system.ruby.cp_cntrl0.sequencer: Cache miss at [0xf90c20, line 0xf90c00]
160566745000: system.ruby.cp_cntrl0.sequencer: Cache miss at [0xc62610, line 0xc62600]
160566747000: system.ruby.cp_cntrl0.sequencer: Cache miss at [0x13a7710, line 0x13a7700]
160566749000: system.ruby.cp_cntrl0.sequencer: Cache miss at [0x13a7710, line 0x13a7700]
160566751000: system.ruby.cp_cntrl0.sequencer: Cache miss at [0x13a7718, line 0x13a7700]
160566753000: system.ruby.cp_cntrl0.sequencer: Cache miss at [0x13a7718, line 0x13a7700]
160566755000: system.ruby.cp_cntrl0.sequencer: Cache miss at [0x13a7718, line 0x13a7700]
160566757000: system.ruby.cp_cntrl0.sequencer: Cache miss at [0x13a7720, line 0x13a7700]
160566759000: system.ruby.cp_cntrl0.sequencer: Cache miss at [0x13a7720, line 0x13a7700]
160566761000: system.ruby.cp_cntrl0.sequencer: Cache miss at [0x13a7720, line 0x13a7700]
160566763000: system.ruby.cp_cntrl0.sequencer: Cache miss at [0x38a68, line 0x38a40]
160566765000: system.ruby.cp_cntrl0.sequencer: Cache miss at [0x3fa8740, line 0x3fa8740]
160566767000: system.ruby.cp_cntrl0.sequencer: Cache miss at [0x10dfae8, line 0x10dfac0]
160566769000: system.ruby.cp_cntrl0.sequencer: Cache miss at [0x3fa8748, line 0x3fa8740]
160566771000: system.ruby.cp_cntrl0.sequencer: Cache miss at [0x3fa8748, line 0x3fa8740]
160566773000: system.ruby.cp_cntrl0.sequencer: Cache miss at [0x3fa8740, line 0x3fa8740]
160566775000: system.ruby.cp_cntrl0.sequencer: Cache miss at [0x38a68, line 0x38a40]
160566777000: system.ruby.cp_cntrl0.sequencer: Cache miss at [0xfaa3f0, line 0xfaa3c0]
160566779000: system.ruby.cp_cntrl0.sequencer: Cache miss at [0xfaa3f0, line 0xfaa3c0]
160566781000: system.ruby.cp_cntrl0.sequencer: Cache miss at [0xfaa3f8, line 0xfaa3c0]
160566783000: system.ruby.cp_cntrl0.sequencer: Cache miss at [0xf90c20, line 0xf90c00]
160566785000: system.ruby.cp_cntrl0.sequencer: Cache miss at [0xc62610, line 0xc62600]
160566787000: system.ruby.cp_cntrl0.sequencer: Cache miss at [0x13a7710, line 0x13a7700]
160566789000: system.ruby.cp_cntrl0.sequencer: Cache miss at [0x13a7710, line 0x13a7700]
160566791000: system.ruby.cp_cntrl0.sequencer: Cache miss at [0x13a7718, line 0x13a7700]
160566793000: system.ruby.cp_cntrl0.sequencer: Cache miss at [0x13a7718, line 0x13a7700]
160566795000: system.ruby.cp_cntrl0.sequencer: Cache miss at [0x13a7718, line 0x13a7700]
160566797000: system.ruby.cp_cntrl0.sequencer: Cache miss at [0x13a7720, line 0x13a7700]
160566799000: system.ruby.cp_cntrl0.sequencer: Cache miss at [0x13a7720, line 0x13a7700]
160566801000: system.ruby.cp_cntrl0.sequencer: Cache miss at [0x13a7720, line 0x13a7700]
160566803000: system.ruby.cp_cntrl0.sequencer: Cache miss at [0x38a68, line 0x38a40]
160566805000: system.ruby.cp_cntrl0.sequencer: Cache miss at [0x3fa8740, line 0x3fa8740]
160566807000: system.ruby.cp_cntrl0.sequencer: Cache miss at [0x10dfae8, line 0x10dfac0]
160566809000: system.ruby.cp_cntrl0.sequencer: Cache miss at [0x3fa8748, line 0x3fa8740]
160566811000: system.ruby.cp_cntrl0.sequencer: Cache miss at [0x3fa8748, line 0x3fa8740]
160566813000: system.ruby.cp_cntrl0.sequencer: Cache miss at [0x3fa8740, line 0x3fa8740]
160566815000: system.ruby.cp_cntrl0.sequencer: Cache miss at [0x38a68, line 0x38a40]
160566817000: system.ruby.cp_cntrl0.sequencer: Cache miss at [0xfaa3f0, line 0xfaa3c0]
160566819000: system.ruby.cp_cntrl0.sequencer: Cache miss at [0xfaa3f0, line 0xfaa3c0]
160566821000: system.ruby.cp_cntrl0.sequencer: Cache miss at [0xfaa3f8, line 0xfaa3c0]
160566823000: system.ruby.cp_cntrl0.sequencer: Cache miss at [0xf90c20, line 0xf90c00]
160566825000: system.ruby.cp_cntrl0.sequencer: Cache miss at [0xc62610, line 0xc62600]
160566827000: system.ruby.cp_cntrl0.sequencer: Cache miss at [0x13a7710, line 0x13a7700]
160566829000: system.ruby.cp_cntrl0.sequencer: Cache miss at [0x13a7710, line 0x13a7700]
160566831000: system.ruby.cp_cntrl0.sequencer: Cache miss at [0x13a7718, line 0x13a7700]
160566833000: system.ruby.cp_cntrl0.sequencer: Cache miss at [0x13a7718, line 0x13a7700]
160566835000: system.ruby.cp_cntrl0.sequencer: Cache miss at [0x13a7718, line 0x13a7700]
160566837000: system.ruby.cp_cntrl0.sequencer: Cache miss at [0x13a7720, line 0x13a7700]
160566839000: system.ruby.cp_cntrl0.sequencer: Cache miss at [0x13a7720, line 0x13a7700]
160566841000: system.ruby.cp_cntrl0.sequencer: Cache miss at [0x13a7720, line 0x13a7700]
160566843000: system.ruby.cp_cntrl0.sequencer: Cache miss at [0x38a68, line 0x38a40]
160566845000: system.ruby.cp_cntrl0.sequencer: Cache miss at [0x3fa8740, line 0x3fa8740]
160566847000: system.ruby.cp_cntrl0.sequencer: Cache miss at [0x10dfae8, line 0x10dfac0]
160566849000: system.ruby.cp_cntrl0.sequencer: Cache miss at [0x3fa8748, line 0x3fa8740]
160566851000: system.ruby.cp_cntrl0.sequencer: Cache miss at [0x3fa8748, line 0x3fa8740]
160566853000: system.ruby.cp_cntrl0.sequencer: Cache miss at [0x3fa8740, line 0x3fa8740]
160566855000: system.ruby.cp_cntrl0.sequencer: Cache miss at [0x38a68, line 0x38a40]
160566857000: system.ruby.cp_cntrl0.sequencer: Cache miss at [0xfaa3f0, line 0xfaa3c0]
160566859000: system.ruby.cp_cntrl0.sequencer: Cache miss at [0xfaa3f0, line 0xfaa3c0]
160566861000: system.ruby.cp_cntrl0.sequencer: Cache miss at [0xfaa3f8, line 0xfaa3c0]
160566863000: system.ruby.cp_cntrl0.sequencer: Cache miss at [0xf90c20, line 0xf90c00]
160566865000: system.ruby.cp_cntrl0.sequencer: Cache miss at [0xc62610, line 0xc62600]
160566867000: system.ruby.cp_cntrl0.sequencer: Cache miss at [0x13a7710, line 0x13a7700]
160566869000: system.ruby.cp_cntrl0.sequencer: Cache miss at [0x13a7710, line 0x13a7700]
160566871000: system.ruby.cp_cntrl0.sequencer: Cache miss at [0x13a7718, line 0x13a7700]
160566873000: system.ruby.cp_cntrl0.sequencer: Cache miss at [0x13a7718, line 0x13a7700]
160566875000: system.ruby.cp_cntrl0.sequencer: Cache miss at [0x13a7718, line 0x13a7700]
160566877000: system.ruby.cp_cntrl0.sequencer: Cache miss at [0x13a7720, line 0x13a7700]
160566879000: system.ruby.cp_cntrl0.sequencer: Cache miss at [0x13a7720, line 0x13a7700]
160566881000: system.ruby.cp_cntrl0.sequencer: Cache miss at [0x13a7720, line 0x13a7700]
160566883000: system.ruby.cp_cntrl0.sequencer: Cache miss at [0x38a68, line 0x38a40]
160566885000: system.ruby.cp_cntrl0.sequencer: Cache miss at [0x3fa8740, line 0x3fa8740]
160566887000: system.ruby.cp_cntrl0.sequencer: Cache miss at [0x10dfae8, line 0x10dfac0]
160566889000: system.ruby.cp_cntrl0.sequencer: Cache miss at [0x3fa8748, line 0x3fa8740]
160566891000: system.ruby.cp_cntrl0.sequencer: Cache miss at [0x3fa8748, line 0x3fa8740]
160566893000: system.ruby.cp_cntrl0.sequencer: Cache miss at [0x3fa8740, line 0x3fa8740]
160566895000: system.ruby.cp_cntrl0.sequencer: Cache miss at [0x38a68, line 0x38a40]
160566897000: system.ruby.cp_cntrl0.sequencer: Cache miss at [0xfaa3f0, line 0xfaa3c0]
160566899000: system.ruby.cp_cntrl0.sequencer: Cache miss at [0xfaa3f0, line 0xfaa3c0]
160566901000: system.ruby.cp_cntrl0.sequencer: Cache miss at [0xfaa3f8, line 0xfaa3c0]
160566903000: system.ruby.cp_cntrl0.sequencer: Cache miss at [0xf90c20, line 0xf90c00]
160566905000: system.ruby.cp_cntrl0.sequencer: Cache miss at [0xc62610, line 0xc62600]
160566907000: system.ruby.cp_cntrl0.sequencer: Cache miss at [0x13a7710, line 0x13a7700]
160566909000: system.ruby.cp_cntrl0.sequencer: Cache miss at [0x13a7710, line 0x13a7700]
160566911000: system.ruby.cp_cntrl0.sequencer: Cache miss at [0x13a7718, line 0x13a7700]
160566913000: system.ruby.cp_cntrl0.sequencer: Cache miss at [0x13a7718, line 0x13a7700]
160566915000: system.ruby.cp_cntrl0.sequencer: Cache miss at [0x13a7718, line 0x13a7700]
160566917000: system.ruby.cp_cntrl0.sequencer: Cache miss at [0x13a7720, line 0x13a7700]
160566919000: system.ruby.cp_cntrl0.sequencer: Cache miss at [0x13a7720, line 0x13a7700]
160566921000: system.ruby.cp_cntrl0.sequencer: Cache miss at [0x13a7720, line 0x13a7700]
160566923000: system.ruby.cp_cntrl0.sequencer: Cache miss at [0x38a68, line 0x38a40]
160566925000: system.ruby.cp_cntrl0.sequencer: Cache miss at [0x3fa8740, line 0x3fa8740]
160566927000: system.ruby.cp_cntrl0.sequencer: Cache miss at [0x10dfae8, line 0x10dfac0]
160566929000: system.ruby.cp_cntrl0.sequencer: Cache miss at [0x3fa8748, line 0x3fa8740]
160566931000: system.ruby.cp_cntrl0.sequencer: Cache miss at [0x3fa8748, line 0x3fa8740]
160566933000: system.ruby.cp_cntrl0.sequencer: Cache miss at [0x3fa8740, line 0x3fa8740]
160566935000: system.ruby.cp_cntrl0.sequencer: Cache miss at [0x38a68, line 0x38a40]
160566937000: system.ruby.cp_cntrl0.sequencer: Cache miss at [0xfaa3f0, line 0xfaa3c0]
160566939000: system.ruby.cp_cntrl0.sequencer: Cache miss at [0xfaa3f0, line 0xfaa3c0]
160566941000: system.ruby.cp_cntrl0.sequencer: Cache miss at [0xfaa3f8, line 0xfaa3c0]
160566943000: system.ruby.cp_cntrl0.sequencer: Cache miss at [0xf90c20, line 0xf90c00]
160566945000: system.ruby.cp_cntrl0.sequencer: Cache miss at [0xc62610, line 0xc62600]
160566947000: system.ruby.cp_cntrl0.sequencer: Cache miss at [0x13a7710, line 0x13a7700]
160566949000: system.ruby.cp_cntrl0.sequencer: Cache miss at [0x13a7710, line 0x13a7700]
160566951000: system.ruby.cp_cntrl0.sequencer: Cache miss at [0x13a7718, line 0x13a7700]
160566953000: system.ruby.cp_cntrl0.sequencer: Cache miss at [0x13a7718, line 0x13a7700]
160566955000: system.ruby.cp_cntrl0.sequencer: Cache miss at [0x13a7718, line 0x13a7700]
160566957000: system.ruby.cp_cntrl0.sequencer: Cache miss at [0x13a7720, line 0x13a7700]
160566959000: system.ruby.cp_cntrl0.sequencer: Cache miss at [0x13a7720, line 0x13a7700]
160566961000: system.ruby.cp_cntrl0.sequencer: Cache miss at [0x13a7720, line 0x13a7700]
160566962310: system.ruby.sqc_cntrl0.sequencer: Cache hit at [0x401d040, line 0x401d040]
160566963000: system.ruby.cp_cntrl0.sequencer: Cache miss at [0x38a68, line 0x38a40]
160566965000: system.ruby.cp_cntrl0.sequencer: Cache miss at [0x3fa8740, line 0x3fa8740]
160566967000: system.ruby.cp_cntrl0.sequencer: Cache miss at [0x10dfae8, line 0x10dfac0]
160566969000: system.ruby.cp_cntrl0.sequencer: Cache miss at [0x3fa8748, line 0x3fa8740]
160566971000: system.ruby.cp_cntrl0.sequencer: Cache miss at [0x3fa8748, line 0x3fa8740]
160566973000: system.ruby.cp_cntrl0.sequencer: Cache miss at [0x3fa8740, line 0x3fa8740]
160566975000: system.ruby.cp_cntrl0.sequencer: Cache miss at [0x38a68, line 0x38a40]
160566977000: system.ruby.cp_cntrl0.sequencer: Cache miss at [0xfaa3f0, line 0xfaa3c0]
160566979000: system.ruby.cp_cntrl0.sequencer: Cache miss at [0xfaa3f0, line 0xfaa3c0]
160566981000: system.ruby.cp_cntrl0.sequencer: Cache miss at [0xfaa3f8, line 0xfaa3c0]
160566983000: system.ruby.cp_cntrl0.sequencer: Cache miss at [0xf90c20, line 0xf90c00]
160566985000: system.ruby.cp_cntrl0.sequencer: Cache miss at [0xc62610, line 0xc62600]
160566987000: system.ruby.cp_cntrl0.sequencer: Cache miss at [0x13a7710, line 0x13a7700]
160566989000: system.ruby.cp_cntrl0.sequencer: Cache miss at [0x13a7710, line 0x13a7700]
160566991000: system.ruby.cp_cntrl0.sequencer: Cache miss at [0x13a7718, line 0x13a7700]
160566993000: system.ruby.cp_cntrl0.sequencer: Cache miss at [0x13a7718, line 0x13a7700]
160566995000: system.ruby.cp_cntrl0.sequencer: Cache miss at [0x13a7718, line 0x13a7700]
160566997000: system.ruby.cp_cntrl0.sequencer: Cache miss at [0x13a7720, line 0x13a7700]
160566999000: system.ruby.cp_cntrl0.sequencer: Cache miss at [0x13a7720, line 0x13a7700]
160567001000: system.ruby.cp_cntrl0.sequencer: Cache miss at [0x13a7720, line 0x13a7700]
160567003000: system.ruby.cp_cntrl0.sequencer: Cache miss at [0x38a68, line 0x38a40]
160567005000: system.ruby.cp_cntrl0.sequencer: Cache miss at [0x3fa8740, line 0x3fa8740]
160567007000: system.ruby.cp_cntrl0.sequencer: Cache miss at [0x10dfae8, line 0x10dfac0]
160567009000: system.ruby.cp_cntrl0.sequencer: Cache miss at [0x3fa8748, line 0x3fa8740]
160567011000: system.ruby.cp_cntrl0.sequencer: Cache miss at [0x3fa8748, line 0x3fa8740]
160567013000: system.ruby.cp_cntrl0.sequencer: Cache miss at [0x3fa8740, line 0x3fa8740]
160567015000: system.ruby.cp_cntrl0.sequencer: Cache miss at [0x38a68, line 0x38a40]
160567017000: system.ruby.cp_cntrl0.sequencer: Cache miss at [0xfaa3f0, line 0xfaa3c0]
160567018000: system.ruby.cp_cntrl1.sequencer: Cache hit at [0x10d5bc8, line 0x10d5bc0]
160567019000: system.ruby.cp_cntrl0.sequencer: Cache miss at [0xfaa3f0, line 0xfaa3c0]
160567020000: system.ruby.cp_cntrl1.sequencer: Cache miss at [0x10d5bc8, line 0x10d5bc0]
160567021000: system.ruby.cp_cntrl0.sequencer: Cache miss at [0xfaa3f8, line 0xfaa3c0]
160567022000: system.ruby.cp_cntrl1.sequencer: Cache miss at [0x138bfd0, line 0x138bfc0]
160567023000: system.ruby.cp_cntrl0.sequencer: Cache miss at [0xf90c20, line 0xf90c00]
160567024000: system.ruby.cp_cntrl1.sequencer: Cache miss at [0x138bfd0, line 0x138bfc0]
160567025000: system.ruby.cp_cntrl0.sequencer: Cache miss at [0xc62610, line 0xc62600]
160567026000: system.ruby.cp_cntrl1.sequencer: Cache miss at [0x138bfd0, line 0x138bfc0]
160567027000: system.ruby.cp_cntrl0.sequencer: Cache miss at [0x13a7710, line 0x13a7700]
160567028000: system.ruby.cp_cntrl1.sequencer: Cache miss at [0x138bfd8, line 0x138bfc0]
160567029000: system.ruby.cp_cntrl0.sequencer: Cache miss at [0x13a7710, line 0x13a7700]
160567030000: system.ruby.cp_cntrl1.sequencer: Cache miss at [0x138bfd8, line 0x138bfc0]
160567031000: system.ruby.cp_cntrl0.sequencer: Cache miss at [0x13a7718, line 0x13a7700]
160567032000: system.ruby.cp_cntrl1.sequencer: Cache miss at [0x139cc68, line 0x139cc40]
160567033000: system.ruby.cp_cntrl0.sequencer: Cache miss at [0x13a7718, line 0x13a7700]
160567034000: system.ruby.cp_cntrl1.sequencer: Cache miss at [0xf9b290, line 0xf9b280]
160567035000: system.ruby.cp_cntrl0.sequencer: Cache miss at [0x13a7718, line 0x13a7700]
160567036000: system.ruby.cp_cntrl1.sequencer: Cache miss at [0xf9b290, line 0xf9b280]
160567037000: system.ruby.cp_cntrl0.sequencer: Cache miss at [0x13a7720, line 0x13a7700]
160567038000: system.ruby.cp_cntrl1.sequencer: Cache miss at [0xf9b298, line 0xf9b280]
160567039000: system.ruby.cp_cntrl0.sequencer: Cache miss at [0x13a7720, line 0x13a7700]
160567040000: system.ruby.cp_cntrl1.sequencer: Cache miss at [0xfaa0d0, line 0xfaa0c0]
160567041000: system.ruby.cp_cntrl0.sequencer: Cache miss at [0x13a7720, line 0x13a7700]
160567042000: system.ruby.cp_cntrl1.sequencer: Cache miss at [0xfaa0d0, line 0xfaa0c0]
160567043000: system.ruby.cp_cntrl0.sequencer: Cache miss at [0x38a68, line 0x38a40]
160567044000: system.ruby.cp_cntrl1.sequencer: Cache miss at [0xfaa0d8, line 0xfaa0c0]
160567045000: system.ruby.cp_cntrl0.sequencer: Cache miss at [0x3fa8740, line 0x3fa8740]
160567047000: system.ruby.cp_cntrl0.sequencer: Cache miss at [0x10dfae8, line 0x10dfac0]
160567049000: system.ruby.cp_cntrl0.sequencer: Cache miss at [0x3fa8748, line 0x3fa8740]
160567051000: system.ruby.cp_cntrl0.sequencer: Cache miss at [0x3fa8748, line 0x3fa8740]
160567053000: system.ruby.cp_cntrl0.sequencer: Cache miss at [0x3fa8740, line 0x3fa8740]
160567055000: system.ruby.cp_cntrl0.sequencer: Cache miss at [0x38a68, line 0x38a40]
160567057000: system.ruby.cp_cntrl0.sequencer: Cache miss at [0xfaa3f0, line 0xfaa3c0]
160567059000: system.ruby.cp_cntrl0.sequencer: Cache miss at [0xfaa3f0, line 0xfaa3c0]
160567061000: system.ruby.cp_cntrl0.sequencer: Cache miss at [0xfaa3f8, line 0xfaa3c0]
160567063000: system.ruby.cp_cntrl0.sequencer: Cache miss at [0xf90c20, line 0xf90c00]
160567064000: system.ruby.cp_cntrl1.sequencer: Cache miss at [0xfa80a0, line 0xfa8080]
160567065000: system.ruby.cp_cntrl0.sequencer: Cache miss at [0xc62610, line 0xc62600]
160567066000: system.ruby.cp_cntrl1.sequencer: Cache miss at [0x4aea0, line 0x4ae80]
160567067000: system.ruby.cp_cntrl0.sequencer: Cache miss at [0x13a7710, line 0x13a7700]
160567068000: system.ruby.cp_cntrl1.sequencer: Cache miss at [0xc906d0, line 0xc906c0]
160567069000: system.ruby.cp_cntrl0.sequencer: Cache miss at [0x13a7710, line 0x13a7700]
160567070000: system.ruby.cp_cntrl1.sequencer: Cache miss at [0xc906d0, line 0xc906c0]
160567071000: system.ruby.cp_cntrl0.sequencer: Cache miss at [0x13a7718, line 0x13a7700]
160567072000: system.ruby.cp_cntrl1.sequencer: Cache miss at [0xc906d8, line 0xc906c0]
160567073000: system.ruby.cp_cntrl0.sequencer: Cache miss at [0x13a7718, line 0x13a7700]
160567074000: system.ruby.cp_cntrl1.sequencer: Cache miss at [0x53ef8, line 0x53ec0]
160567075000: system.ruby.cp_cntrl0.sequencer: Cache miss at [0x13a7718, line 0x13a7700]
160567076000: system.ruby.cp_cntrl1.sequencer: Cache miss at [0xc906d8, line 0xc906c0]
160567077000: system.ruby.cp_cntrl0.sequencer: Cache miss at [0x13a7720, line 0x13a7700]
160567078000: system.ruby.cp_cntrl1.sequencer: Cache miss at [0xc906e0, line 0xc906c0]
160567079000: system.ruby.cp_cntrl0.sequencer: Cache miss at [0x13a7720, line 0x13a7700]
160567080000: system.ruby.cp_cntrl1.sequencer: Cache miss at [0xc84e48, line 0xc84e40]
160567081000: system.ruby.cp_cntrl0.sequencer: Cache miss at [0x13a7720, line 0x13a7700]
160567082000: system.ruby.cp_cntrl1.sequencer: Cache miss at [0xc906e0, line 0xc906c0]
160567083000: system.ruby.cp_cntrl0.sequencer: Cache miss at [0x38a68, line 0x38a40]
160567084000: system.ruby.cp_cntrl1.sequencer: Cache miss at [0xc906e0, line 0xc906c0]
160567085000: system.ruby.cp_cntrl0.sequencer: Cache miss at [0x3fa8740, line 0x3fa8740]
160567086000: system.ruby.cp_cntrl1.sequencer: Cache miss at [0xc906e8, line 0xc906c0]
160567087000: system.ruby.cp_cntrl0.sequencer: Cache miss at [0x10dfae8, line 0x10dfac0]
160567088000: system.ruby.cp_cntrl1.sequencer: Cache miss at [0xc906e8, line 0xc906c0]
160567089000: system.ruby.cp_cntrl0.sequencer: Cache miss at [0x3fa8748, line 0x3fa8740]
160567090000: system.ruby.cp_cntrl1.sequencer: Cache miss at [0xc906e8, line 0xc906c0]
160567091000: system.ruby.cp_cntrl0.sequencer: Cache miss at [0x3fa8748, line 0x3fa8740]
160567092000: system.ruby.cp_cntrl1.sequencer: Cache miss at [0xc906f0, line 0xc906c0]
160567093000: system.ruby.cp_cntrl0.sequencer: Cache miss at [0x3fa8740, line 0x3fa8740]
160567094000: system.ruby.cp_cntrl1.sequencer: Cache miss at [0x10d9918, line 0x10d9900]
160567095000: system.ruby.cp_cntrl0.sequencer: Cache miss at [0x38a68, line 0x38a40]
160567096000: system.ruby.cp_cntrl1.sequencer: Cache miss at [0xc906f0, line 0xc906c0]
160567097000: system.ruby.cp_cntrl0.sequencer: Cache miss at [0xfaa3f0, line 0xfaa3c0]
160567098000: system.ruby.cp_cntrl1.sequencer: Cache miss at [0xc906f8, line 0xc906c0]
160567099000: system.ruby.cp_cntrl0.sequencer: Cache miss at [0xfaa3f0, line 0xfaa3c0]
160567100000: system.ruby.cp_cntrl1.sequencer: Cache miss at [0xc906f8, line 0xc906c0]
160567101000: system.ruby.cp_cntrl0.sequencer: Cache miss at [0xfaa3f8, line 0xfaa3c0]
160567102000: system.ruby.cp_cntrl1.sequencer: Cache miss at [0xc906f8, line 0xc906c0]
160567103000: system.ruby.cp_cntrl0.sequencer: Cache miss at [0xf90c20, line 0xf90c00]
160567104000: system.ruby.cp_cntrl1.sequencer: Cache miss at [0xc90700, line 0xc90700]
160567105000: system.ruby.cp_cntrl0.sequencer: Cache miss at [0xc62610, line 0xc62600]
160567106000: system.ruby.cp_cntrl1.sequencer: Cache miss at [0x53d78, line 0x53d40]
160567107000: system.ruby.cp_cntrl0.sequencer: Cache miss at [0x13a7710, line 0x13a7700]
160567108000: system.ruby.cp_cntrl1.sequencer: Cache miss at [0xc90700, line 0xc90700]
160567109000: system.ruby.cp_cntrl0.sequencer: Cache miss at [0x13a7710, line 0x13a7700]
160567110000: system.ruby.cp_cntrl1.sequencer: Cache miss at [0x139b5c0, line 0x139b5c0]
160567111000: system.ruby.cp_cntrl0.sequencer: Cache miss at [0x13a7718, line 0x13a7700]
160567112000: system.ruby.cp_cntrl1.sequencer: Cache miss at [0xc90708, line 0xc90700]
160567113000: system.ruby.cp_cntrl0.sequencer: Cache miss at [0x13a7718, line 0x13a7700]
160567114000: system.ruby.cp_cntrl1.sequencer: Cache miss at [0xc90708, line 0xc90700]
160567115000: system.ruby.cp_cntrl0.sequencer: Cache miss at [0x13a7718, line 0x13a7700]
160567116000: system.ruby.cp_cntrl1.sequencer: Cache miss at [0xc90710, line 0xc90700]
160567117000: system.ruby.cp_cntrl0.sequencer: Cache miss at [0x13a7720, line 0x13a7700]
160567118000: system.ruby.cp_cntrl1.sequencer: Cache miss at [0xc90710, line 0xc90700]
160567119000: system.ruby.cp_cntrl0.sequencer: Cache miss at [0x13a7720, line 0x13a7700]
160567120000: system.ruby.cp_cntrl1.sequencer: Cache miss at [0xc90710, line 0xc90700]
160567121000: system.ruby.cp_cntrl0.sequencer: Cache miss at [0x13a7720, line 0x13a7700]
160567122000: system.ruby.cp_cntrl1.sequencer: Cache miss at [0xc90718, line 0xc90700]
160567123000: system.ruby.cp_cntrl0.sequencer: Cache miss at [0x38a68, line 0x38a40]
160567124000: system.ruby.cp_cntrl1.sequencer: Cache miss at [0xc90720, line 0xc90700]
160567125000: system.ruby.cp_cntrl0.sequencer: Cache miss at [0x3fa8740, line 0x3fa8740]
160567126000: system.ruby.cp_cntrl1.sequencer: Cache miss at [0xc90720, line 0xc90700]
160567127000: system.ruby.cp_cntrl0.sequencer: Cache miss at [0x10dfae8, line 0x10dfac0]
160567128000: system.ruby.cp_cntrl1.sequencer: Cache miss at [0xc90728, line 0xc90700]
160567129000: system.ruby.cp_cntrl0.sequencer: Cache miss at [0x3fa8748, line 0x3fa8740]
160567130000: system.ruby.cp_cntrl1.sequencer: Cache miss at [0xc90728, line 0xc90700]
160567131000: system.ruby.cp_cntrl0.sequencer: Cache miss at [0x3fa8748, line 0x3fa8740]
160567132000: system.ruby.cp_cntrl1.sequencer: Cache miss at [0xca2840, line 0xca2840]
160567133000: system.ruby.cp_cntrl0.sequencer: Cache miss at [0x3fa8740, line 0x3fa8740]
160567134000: system.ruby.cp_cntrl1.sequencer: Cache miss at [0x139cc60, line 0x139cc40]
160567135000: system.ruby.cp_cntrl0.sequencer: Cache miss at [0x38a68, line 0x38a40]
160567136000: system.ruby.cp_cntrl1.sequencer: Cache miss at [0xca2840, line 0xca2840]
160567137000: system.ruby.cp_cntrl0.sequencer: Cache miss at [0xfaa3f0, line 0xfaa3c0]
160567138000: system.ruby.cp_cntrl1.sequencer: Cache miss at [0x139cc58, line 0x139cc40]
160567139000: system.ruby.cp_cntrl0.sequencer: Cache miss at [0xfaa3f0, line 0xfaa3c0]
160567140000: system.ruby.cp_cntrl1.sequencer: Cache miss at [0xca2840, line 0xca2840]
160567141000: system.ruby.cp_cntrl0.sequencer: Cache miss at [0xfaa3f8, line 0xfaa3c0]
160567142000: system.ruby.cp_cntrl1.sequencer: Cache miss at [0x139cc50, line 0x139cc40]
160567143000: system.ruby.cp_cntrl0.sequencer: Cache miss at [0xf90c20, line 0xf90c00]
160567144000: system.ruby.cp_cntrl1.sequencer: Cache miss at [0xca2840, line 0xca2840]
160567145000: system.ruby.cp_cntrl0.sequencer: Cache miss at [0xc62610, line 0xc62600]
160567146000: system.ruby.cp_cntrl1.sequencer: Cache miss at [0xca2848, line 0xca2840]
160567147000: system.ruby.cp_cntrl0.sequencer: Cache miss at [0x13a7710, line 0x13a7700]
160567148000: system.ruby.cp_cntrl1.sequencer: Cache miss at [0xca2848, line 0xca2840]
160567149000: system.ruby.cp_cntrl0.sequencer: Cache miss at [0x13a7710, line 0x13a7700]
160567150000: system.ruby.cp_cntrl1.sequencer: Cache miss at [0x139cc48, line 0x139cc40]
160567151000: system.ruby.cp_cntrl0.sequencer: Cache miss at [0x13a7718, line 0x13a7700]
160567152000: system.ruby.cp_cntrl1.sequencer: Cache miss at [0xca2848, line 0xca2840]
160567153000: system.ruby.cp_cntrl0.sequencer: Cache miss at [0x13a7718, line 0x13a7700]
160567154000: system.ruby.cp_cntrl1.sequencer: Cache miss at [0x139cc40, line 0x139cc40]
160567155000: system.ruby.cp_cntrl0.sequencer: Cache miss at [0x13a7718, line 0x13a7700]
160567156000: system.ruby.cp_cntrl1.sequencer: Cache miss at [0xca2848, line 0xca2840]
160567157000: system.ruby.cp_cntrl0.sequencer: Cache miss at [0x13a7720, line 0x13a7700]
160567158000: system.ruby.cp_cntrl1.sequencer: Cache miss at [0x139cc38, line 0x139cc00]
160567159000: system.ruby.cp_cntrl0.sequencer: Cache miss at [0x13a7720, line 0x13a7700]
160567160000: system.ruby.cp_cntrl1.sequencer: Cache miss at [0xca2848, line 0xca2840]
160567161000: system.ruby.cp_cntrl0.sequencer: Cache miss at [0x13a7720, line 0x13a7700]
160567162000: system.ruby.cp_cntrl1.sequencer: Cache miss at [0xca2850, line 0xca2840]
160567163000: system.ruby.cp_cntrl0.sequencer: Cache miss at [0x38a68, line 0x38a40]
160567164000: system.ruby.cp_cntrl1.sequencer: Cache miss at [0xca2850, line 0xca2840]
160567165000: system.ruby.cp_cntrl0.sequencer: Cache miss at [0x3fa8740, line 0x3fa8740]
160567166000: system.ruby.cp_cntrl1.sequencer: Cache miss at [0xca2858, line 0xca2840]
160567167000: system.ruby.cp_cntrl0.sequencer: Cache miss at [0x10dfae8, line 0x10dfac0]
160567168000: system.ruby.cp_cntrl1.sequencer: Cache miss at [0x139b728, line 0x139b700]
160567169000: system.ruby.cp_cntrl0.sequencer: Cache miss at [0x3fa8748, line 0x3fa8740]
160567170000: system.ruby.cp_cntrl1.sequencer: Cache miss at [0xca2858, line 0xca2840]
160567171000: system.ruby.cp_cntrl0.sequencer: Cache miss at [0x3fa8748, line 0x3fa8740]
160567172000: system.ruby.cp_cntrl1.sequencer: Cache miss at [0x139cc28, line 0x139cc00]
160567173000: system.ruby.cp_cntrl0.sequencer: Cache miss at [0x3fa8740, line 0x3fa8740]
160567174000: system.ruby.cp_cntrl1.sequencer: Cache miss at [0xca2858, line 0xca2840]
160567175000: system.ruby.cp_cntrl0.sequencer: Cache miss at [0x38a68, line 0x38a40]
160567176000: system.ruby.cp_cntrl1.sequencer: Cache miss at [0xca2860, line 0xca2840]
160567177000: system.ruby.cp_cntrl0.sequencer: Cache miss at [0xfaa3f0, line 0xfaa3c0]
160567178000: system.ruby.cp_cntrl1.sequencer: Cache miss at [0xca2860, line 0xca2840]
160567179000: system.ruby.cp_cntrl0.sequencer: Cache miss at [0xfaa3f0, line 0xfaa3c0]
160567180000: system.ruby.cp_cntrl1.sequencer: Cache miss at [0x10d9918, line 0x10d9900]
160567181000: system.ruby.cp_cntrl0.sequencer: Cache miss at [0xfaa3f8, line 0xfaa3c0]
160567182000: system.ruby.cp_cntrl1.sequencer: Cache miss at [0xca2860, line 0xca2840]
160567183000: system.ruby.cp_cntrl0.sequencer: Cache miss at [0xf90c20, line 0xf90c00]
160567184000: system.ruby.cp_cntrl1.sequencer: Cache miss at [0xca2868, line 0xca2840]
160567185000: system.ruby.cp_cntrl0.sequencer: Cache miss at [0xc62610, line 0xc62600]
160567186000: system.ruby.cp_cntrl1.sequencer: Cache miss at [0xca2868, line 0xca2840]
160567187000: system.ruby.cp_cntrl0.sequencer: Cache miss at [0x13a7710, line 0x13a7700]
160567188000: system.ruby.cp_cntrl1.sequencer: Cache miss at [0xca2868, line 0xca2840]
160567189000: system.ruby.cp_cntrl0.sequencer: Cache miss at [0x13a7710, line 0x13a7700]
160567190000: system.ruby.cp_cntrl1.sequencer: Cache miss at [0xca2870, line 0xca2840]
160567191000: system.ruby.cp_cntrl0.sequencer: Cache miss at [0x13a7718, line 0x13a7700]
160567192000: system.ruby.cp_cntrl1.sequencer: Cache miss at [0xca2870, line 0xca2840]
160567193000: system.ruby.cp_cntrl0.sequencer: Cache miss at [0x13a7718, line 0x13a7700]
160567194000: system.ruby.cp_cntrl1.sequencer: Cache miss at [0xca2870, line 0xca2840]
160567195000: system.ruby.cp_cntrl0.sequencer: Cache miss at [0x13a7718, line 0x13a7700]
160567196000: system.ruby.cp_cntrl1.sequencer: Cache miss at [0xca2878, line 0xca2840]
160567197000: system.ruby.cp_cntrl0.sequencer: Cache miss at [0x13a7720, line 0x13a7700]
160567198000: system.ruby.cp_cntrl1.sequencer: Cache miss at [0xca2878, line 0xca2840]
160567199000: system.ruby.cp_cntrl0.sequencer: Cache miss at [0x13a7720, line 0x13a7700]
160567200000: system.ruby.cp_cntrl1.sequencer: Cache miss at [0xca2878, line 0xca2840]
160567201000: system.ruby.cp_cntrl0.sequencer: Cache miss at [0x13a7720, line 0x13a7700]
160567202000: system.ruby.cp_cntrl1.sequencer: Cache miss at [0xca2880, line 0xca2880]
160567203000: system.ruby.cp_cntrl0.sequencer: Cache miss at [0x38a68, line 0x38a40]
160567204000: system.ruby.cp_cntrl1.sequencer: Cache miss at [0xca2880, line 0xca2880]
160567205000: system.ruby.cp_cntrl0.sequencer: Cache miss at [0x3fa8740, line 0x3fa8740]
160567206000: system.ruby.cp_cntrl1.sequencer: Cache miss at [0xca2888, line 0xca2880]
160567207000: system.ruby.cp_cntrl0.sequencer: Cache miss at [0x10dfae8, line 0x10dfac0]
160567208000: system.ruby.cp_cntrl1.sequencer: Cache miss at [0xca2888, line 0xca2880]
160567209000: system.ruby.cp_cntrl0.sequencer: Cache miss at [0x3fa8748, line 0x3fa8740]
160567210000: system.ruby.cp_cntrl1.sequencer: Cache miss at [0xca2890, line 0xca2880]
160567211000: system.ruby.cp_cntrl0.sequencer: Cache miss at [0x3fa8748, line 0x3fa8740]
160567212000: system.ruby.cp_cntrl1.sequencer: Cache miss at [0xca2890, line 0xca2880]
160567213000: system.ruby.cp_cntrl0.sequencer: Cache miss at [0x3fa8740, line 0x3fa8740]
160567214000: system.ruby.cp_cntrl1.sequencer: Cache miss at [0xca2890, line 0xca2880]
160567215000: system.ruby.cp_cntrl0.sequencer: Cache miss at [0x38a68, line 0x38a40]
160567216000: system.ruby.cp_cntrl1.sequencer: Cache miss at [0xca2898, line 0xca2880]
160567217000: system.ruby.cp_cntrl0.sequencer: Cache miss at [0xfaa3f0, line 0xfaa3c0]
160567218000: system.ruby.cp_cntrl1.sequencer: Cache miss at [0xca2898, line 0xca2880]
160567219000: system.ruby.cp_cntrl0.sequencer: Cache miss at [0xfaa3f0, line 0xfaa3c0]
160567220000: system.ruby.cp_cntrl1.sequencer: Cache miss at [0xca28a0, line 0xca2880]
160567221000: system.ruby.cp_cntrl0.sequencer: Cache miss at [0xfaa3f8, line 0xfaa3c0]
160567222000: system.ruby.cp_cntrl1.sequencer: Cache miss at [0x53d78, line 0x53d40]
160567223000: system.ruby.cp_cntrl0.sequencer: Cache miss at [0xf90c20, line 0xf90c00]
160567224000: system.ruby.cp_cntrl1.sequencer: Cache miss at [0xca28a0, line 0xca2880]
160567225000: system.ruby.cp_cntrl0.sequencer: Cache miss at [0xc62610, line 0xc62600]
160567226000: system.ruby.cp_cntrl1.sequencer: Cache miss at [0xca28a0, line 0xca2880]
160567227000: system.ruby.cp_cntrl0.sequencer: Cache miss at [0x13a7710, line 0x13a7700]
160567228000: system.ruby.cp_cntrl1.sequencer: Cache miss at [0x139b5c0, line 0x139b5c0]
160567229000: system.ruby.cp_cntrl0.sequencer: Cache miss at [0x13a7710, line 0x13a7700]
160567230000: system.ruby.cp_cntrl1.sequencer: Cache miss at [0xca28a8, line 0xca2880]
160567231000: system.ruby.cp_cntrl0.sequencer: Cache miss at [0x13a7718, line 0x13a7700]
160567232000: system.ruby.cp_cntrl1.sequencer: Cache miss at [0xca28a8, line 0xca2880]
160567233000: system.ruby.cp_cntrl0.sequencer: Cache miss at [0x13a7718, line 0x13a7700]
160567234000: system.ruby.cp_cntrl1.sequencer: Cache miss at [0xca28a8, line 0xca2880]
160567235000: system.ruby.cp_cntrl0.sequencer: Cache miss at [0x13a7718, line 0x13a7700]
160567236000: system.ruby.cp_cntrl1.sequencer: Cache miss at [0xca28b0, line 0xca2880]
160567237000: system.ruby.cp_cntrl0.sequencer: Cache miss at [0x13a7720, line 0x13a7700]
160567238000: system.ruby.cp_cntrl1.sequencer: Cache miss at [0xca28b0, line 0xca2880]
160567239000: system.ruby.cp_cntrl0.sequencer: Cache miss at [0x13a7720, line 0x13a7700]
160567240000: system.ruby.cp_cntrl1.sequencer: Cache miss at [0xca28b0, line 0xca2880]
160567241000: system.ruby.cp_cntrl0.sequencer: Cache miss at [0x13a7720, line 0x13a7700]
160567242000: system.ruby.cp_cntrl1.sequencer: Cache miss at [0xca28b8, line 0xca2880]
160567243000: system.ruby.cp_cntrl0.sequencer: Cache miss at [0x38a68, line 0x38a40]
160567244000: system.ruby.cp_cntrl1.sequencer: Cache miss at [0x8f2d0, line 0x8f2c0]
160567245000: system.ruby.cp_cntrl0.sequencer: Cache miss at [0x3fa8740, line 0x3fa8740]
160567246000: system.ruby.cp_cntrl1.sequencer: Cache miss at [0xca28b8, line 0xca2880]
160567247000: system.ruby.cp_cntrl0.sequencer: Cache miss at [0x10dfae8, line 0x10dfac0]
160567248000: system.ruby.cp_cntrl1.sequencer: Cache miss at [0xca28b8, line 0xca2880]
160567249000: system.ruby.cp_cntrl0.sequencer: Cache miss at [0x3fa8748, line 0x3fa8740]
160567250000: system.ruby.cp_cntrl1.sequencer: Cache miss at [0xca28c0, line 0xca28c0]
160567251000: system.ruby.cp_cntrl0.sequencer: Cache miss at [0x3fa8748, line 0x3fa8740]
160567252000: system.ruby.cp_cntrl1.sequencer: Cache miss at [0xca28c0, line 0xca28c0]
160567253000: system.ruby.cp_cntrl0.sequencer: Cache miss at [0x3fa8740, line 0x3fa8740]
160567254000: system.ruby.cp_cntrl1.sequencer: Cache miss at [0x10d9928, line 0x10d9900]
160567255000: system.ruby.cp_cntrl0.sequencer: Cache miss at [0x38a68, line 0x38a40]
160567256000: system.ruby.cp_cntrl1.sequencer: Cache miss at [0xca28c0, line 0xca28c0]
160567257000: system.ruby.cp_cntrl0.sequencer: Cache miss at [0xfaa3f0, line 0xfaa3c0]
160567258000: system.ruby.cp_cntrl1.sequencer: Cache miss at [0xca28c8, line 0xca28c0]
160567259000: system.ruby.cp_cntrl0.sequencer: Cache miss at [0xfaa3f0, line 0xfaa3c0]
160567260000: system.ruby.cp_cntrl1.sequencer: Cache miss at [0xca28c8, line 0xca28c0]
160567261000: system.ruby.cp_cntrl0.sequencer: Cache miss at [0xfaa3f8, line 0xfaa3c0]
160567262000: system.ruby.cp_cntrl1.sequencer: Cache miss at [0xca28d0, line 0xca28c0]
160567263000: system.ruby.cp_cntrl0.sequencer: Cache miss at [0xf90c20, line 0xf90c00]
160567264000: system.ruby.cp_cntrl1.sequencer: Cache miss at [0xca28d0, line 0xca28c0]
160567265000: system.ruby.cp_cntrl0.sequencer: Cache miss at [0xc62610, line 0xc62600]
160567267000: system.ruby.cp_cntrl0.sequencer: Cache miss at [0x13a7710, line 0x13a7700]
160567269000: system.ruby.cp_cntrl0.sequencer: Cache miss at [0x13a7710, line 0x13a7700]
160567271000: system.ruby.cp_cntrl0.sequencer: Cache miss at [0x13a7718, line 0x13a7700]
160567273000: system.ruby.cp_cntrl0.sequencer: Cache miss at [0x13a7718, line 0x13a7700]
160567275000: system.ruby.cp_cntrl0.sequencer: Cache miss at [0x13a7718, line 0x13a7700]
160567277000: system.ruby.cp_cntrl0.sequencer: Cache miss at [0x13a7720, line 0x13a7700]
160567279000: system.ruby.cp_cntrl0.sequencer: Cache miss at [0x13a7720, line 0x13a7700]
160567281000: system.ruby.cp_cntrl0.sequencer: Cache miss at [0x13a7720, line 0x13a7700]
160567283000: system.ruby.cp_cntrl0.sequencer: Cache miss at [0x38a68, line 0x38a40]
160567284000: system.ruby.cp_cntrl1.sequencer: Cache miss at [0x13978d4, line 0x13978c0]
160567285000: system.ruby.cp_cntrl0.sequencer: Cache miss at [0x3fa8740, line 0x3fa8740]
160567286000: system.ruby.cp_cntrl1.sequencer: Cache miss at [0xca28d0, line 0xca28c0]
160567287000: system.ruby.cp_cntrl0.sequencer: Cache miss at [0x10dfae8, line 0x10dfac0]
160567288000: system.ruby.cp_cntrl1.sequencer: Cache miss at [0xca28d8, line 0xca28c0]
160567289000: system.ruby.cp_cntrl0.sequencer: Cache miss at [0x3fa8748, line 0x3fa8740]
160567290000: system.ruby.cp_cntrl1.sequencer: Cache miss at [0x8f2e0, line 0x8f2c0]
160567291000: system.ruby.cp_cntrl0.sequencer: Cache miss at [0x3fa8748, line 0x3fa8740]
160567292000: system.ruby.cp_cntrl1.sequencer: Cache miss at [0xca28d8, line 0xca28c0]
160567293000: system.ruby.cp_cntrl0.sequencer: Cache miss at [0x3fa8740, line 0x3fa8740]
160567294000: system.ruby.cp_cntrl1.sequencer: Cache miss at [0xca28d8, line 0xca28c0]
160567295000: system.ruby.cp_cntrl0.sequencer: Cache miss at [0x38a68, line 0x38a40]
160567296000: system.ruby.cp_cntrl1.sequencer: Cache miss at [0xca28e0, line 0xca28c0]
160567297000: system.ruby.cp_cntrl0.sequencer: Cache miss at [0xfaa3f0, line 0xfaa3c0]
160567298000: system.ruby.cp_cntrl1.sequencer: Cache miss at [0xca2af8, line 0xca2ac0]
160567299000: system.ruby.cp_cntrl0.sequencer: Cache miss at [0xfaa3f0, line 0xfaa3c0]
160567300000: system.ruby.cp_cntrl1.sequencer: Cache miss at [0xca2af8, line 0xca2ac0]
160567301000: system.ruby.cp_cntrl0.sequencer: Cache miss at [0xfaa3f8, line 0xfaa3c0]
160567302000: system.ruby.cp_cntrl1.sequencer: Cache miss at [0xca2b00, line 0xca2b00]
160567303000: system.ruby.cp_cntrl0.sequencer: Cache miss at [0xf90c20, line 0xf90c00]
160567305000: system.ruby.cp_cntrl0.sequencer: Cache miss at [0xc62610, line 0xc62600]
[...]
160574209000: system.ruby.cp_cntrl0.sequencer: Cache miss at [0x13a7710, line 0x13a7700]
160574211000: system.ruby.cp_cntrl0.sequencer: Cache miss at [0x13a7718, line 0x13a7700]
160574213000: system.ruby.cp_cntrl0.sequencer: Cache miss at [0x13a7718, line 0x13a7700]
160574215000: system.ruby.cp_cntrl0.sequencer: Cache miss at [0x13a7718, line 0x13a7700]
160574217000: system.ruby.cp_cntrl0.sequencer: Cache miss at [0x13a7720, line 0x13a7700]
160574219000: system.ruby.cp_cntrl0.sequencer: Cache miss at [0x13a7720, line 0x13a7700]
160574221000: system.ruby.cp_cntrl0.sequencer: Cache miss at [0x13a7720, line 0x13a7700]
160574223000: system.ruby.cp_cntrl0.sequencer: Cache miss at [0x38a68, line 0x38a40]
160574225000: system.ruby.cp_cntrl0.sequencer: Cache miss at [0x3fa8740, line 0x3fa8740]
160574225595: system.ruby.tcp_cntrl0.coalescer: ReadCallBack GPU Cache miss at <extra arg>%x
160574225595: system.ruby.tcp_cntrl0.coalescer: GPU Cache miss at [0x1386284, line 0x1386280]
160574227000: system.ruby.cp_cntrl0.sequencer: Cache miss at [0x10dfae8, line 0x10dfac0]
160574229000: system.ruby.cp_cntrl0.sequencer: Cache miss at [0x3fa8748, line 0x3fa8740]
160574231000: system.ruby.cp_cntrl0.sequencer: Cache miss at [0x3fa8748, line 0x3fa8740]
160574233000: system.ruby.cp_cntrl0.sequencer: Cache miss at [0x3fa8740, line 0x3fa8740]
160574235000: system.ruby.cp_cntrl0.sequencer: Cache miss at [0x38a68, line 0x38a40]
160574237000: system.ruby.cp_cntrl0.sequencer: Cache miss at [0xfaa3f0, line 0xfaa3c0]
160574239000: system.ruby.cp_cntrl0.sequencer: Cache miss at [0xfaa3f0, line 0xfaa3c0]
160574241000: system.ruby.cp_cntrl0.sequencer: Cache miss at [0xfaa3f8, line 0xfaa3c0]
160574243000: system.ruby.cp_cntrl0.sequencer: Cache miss at [0xf90c20, line 0xf90c00]
160574245000: system.ruby.cp_cntrl0.sequencer: Cache miss at [0xc62610, line 0xc62600]
160574247000: system.ruby.cp_cntrl0.sequencer: Cache miss at [0x13a7710, line 0x13a7700]
160574249000: system.ruby.cp_cntrl0.sequencer: Cache miss at [0x13a7710, line 0x13a7700]
160574251000: system.ruby.cp_cntrl0.sequencer: Cache miss at [0x13a7718, line 0x13a7700]
160574253000: system.ruby.cp_cntrl0.sequencer: Cache miss at [0x13a7718, line 0x13a7700]
160574255000: system.ruby.cp_cntrl0.sequencer: Cache miss at [0x13a7718, line 0x13a7700]
160574257000: system.ruby.cp_cntrl0.sequencer: Cache miss at [0x13a7720, line 0x13a7700]
160574259000: system.ruby.cp_cntrl0.sequencer: Cache miss at [0x13a7720, line 0x13a7700]
160574261000: system.ruby.cp_cntrl0.sequencer: Cache miss at [0x13a7720, line 0x13a7700]
160574263000: system.ruby.cp_cntrl0.sequencer: Cache miss at [0x38a68, line 0x38a40]
160574265000: system.ruby.cp_cntrl0.sequencer: Cache miss at [0x3fa8740, line 0x3fa8740]
160574267000: system.ruby.cp_cntrl0.sequencer: Cache miss at [0x10dfae8, line 0x10dfac0]
160574269000: system.ruby.cp_cntrl0.sequencer: Cache miss at [0x3fa8748, line 0x3fa8740]
160574271000: system.ruby.cp_cntrl0.sequencer: Cache miss at [0x3fa8748, line 0x3fa8740]
160574273000: system.ruby.cp_cntrl0.sequencer: Cache miss at [0x3fa8740, line 0x3fa8740]
160574275000: system.ruby.cp_cntrl0.sequencer: Cache miss at [0x38a68, line 0x38a40]
160574277000: system.ruby.cp_cntrl0.sequencer: Cache miss at [0xfaa3f0, line 0xfaa3c0]
160574279000: system.ruby.cp_cntrl0.sequencer: Cache miss at [0xfaa3f0, line 0xfaa3c0]
160574281000: system.ruby.cp_cntrl0.sequencer: Cache miss at [0xfaa3f8, line 0xfaa3c0]
160574283000: system.ruby.cp_cntrl0.sequencer: Cache miss at [0xf90c20, line 0xf90c00]
160574285000: system.ruby.cp_cntrl0.sequencer: Cache miss at [0xc62610, line 0xc62600]
160574287000: system.ruby.cp_cntrl0.sequencer: Cache miss at [0x13a7710, line 0x13a7700]
160574289000: system.ruby.cp_cntrl0.sequencer: Cache miss at [0x13a7710, line 0x13a7700]
160574291000: system.ruby.cp_cntrl0.sequencer: Cache miss at [0x13a7718, line 0x13a7700]
160574293000: system.ruby.cp_cntrl0.sequencer: Cache miss at [0x13a7718, line 0x13a7700]
160574295000: system.ruby.cp_cntrl0.sequencer: Cache miss at [0x13a7718, line 0x13a7700]
160574297000: system.ruby.cp_cntrl0.sequencer: Cache miss at [0x13a7720, line 0x13a7700]
160574299000: system.ruby.cp_cntrl0.sequencer: Cache miss at [0x13a7720, line 0x13a7700]
160574301000: system.ruby.cp_cntrl0.sequencer: Cache miss at [0x13a7720, line 0x13a7700]
160574303000: system.ruby.cp_cntrl0.sequencer: Cache miss at [0x38a68, line 0x38a40]
160574305000: system.ruby.cp_cntrl0.sequencer: Cache miss at [0x3fa8740, line 0x3fa8740]
160574307000: system.ruby.cp_cntrl0.sequencer: Cache miss at [0x10dfae8, line 0x10dfac0]
160574309000: system.ruby.cp_cntrl0.sequencer: Cache miss at [0x3fa8748, line 0x3fa8740]
160574311000: system.ruby.cp_cntrl0.sequencer: Cache miss at [0x3fa8748, line 0x3fa8740]
160574313000: system.ruby.cp_cntrl0.sequencer: Cache miss at [0x3fa8740, line 0x3fa8740]
160574315000: system.ruby.cp_cntrl0.sequencer: Cache miss at [0x38a68, line 0x38a40]
160574317000: system.ruby.cp_cntrl0.sequencer: Cache miss at [0xfaa3f0, line 0xfaa3c0]
160574319000: system.ruby.cp_cntrl0.sequencer: Cache miss at [0xfaa3f0, line 0xfaa3c0]
160574321000: system.ruby.cp_cntrl0.sequencer: Cache miss at [0xfaa3f8, line 0xfaa3c0]
160574323000: system.ruby.cp_cntrl0.sequencer: Cache miss at [0xf90c20, line 0xf90c00]
160574325000: system.ruby.cp_cntrl0.sequencer: Cache miss at [0xc62610, line 0xc62600]
160574327000: system.ruby.cp_cntrl0.sequencer: Cache miss at [0x13a7710, line 0x13a7700]
160574329000: system.ruby.cp_cntrl0.sequencer: Cache miss at [0x13a7710, line 0x13a7700]
160574331000: system.ruby.cp_cntrl0.sequencer: Cache miss at [0x13a7718, line 0x13a7700]
160574333000: system.ruby.cp_cntrl0.sequencer: Cache miss at [0x13a7718, line 0x13a7700]
160574335000: system.ruby.cp_cntrl0.sequencer: Cache miss at [0x13a7718, line 0x13a7700]
160574337000: system.ruby.cp_cntrl0.sequencer: Cache miss at [0x13a7720, line 0x13a7700]
160574339000: system.ruby.cp_cntrl0.sequencer: Cache miss at [0x13a7720, line 0x13a7700]
160574341000: system.ruby.cp_cntrl0.sequencer: Cache miss at [0x13a7720, line 0x13a7700]
160574343000: system.ruby.cp_cntrl0.sequencer: Cache miss at [0x38a68, line 0x38a40]
160574345000: system.ruby.cp_cntrl0.sequencer: Cache miss at [0x3fa8740, line 0x3fa8740]
160574347000: system.ruby.cp_cntrl0.sequencer: Cache miss at [0x10dfae8, line 0x10dfac0]
160574349000: system.ruby.cp_cntrl0.sequencer: Cache miss at [0x3fa8748, line 0x3fa8740]
160574351000: system.ruby.cp_cntrl0.sequencer: Cache miss at [0x3fa8748, line 0x3fa8740]
160574353000: system.ruby.cp_cntrl0.sequencer: Cache miss at [0x3fa8740, line 0x3fa8740]
160574355000: system.ruby.cp_cntrl0.sequencer: Cache miss at [0x38a68, line 0x38a40]
160574357000: system.ruby.cp_cntrl0.sequencer: Cache miss at [0xfaa3f0, line 0xfaa3c0]
160574359000: system.ruby.cp_cntrl0.sequencer: Cache miss at [0xfaa3f0, line 0xfaa3c0]
160574361000: system.ruby.cp_cntrl0.sequencer: Cache miss at [0xfaa3f8, line 0xfaa3c0]
160574363000: system.ruby.cp_cntrl0.sequencer: Cache miss at [0xf90c20, line 0xf90c00]
160574365000: system.ruby.cp_cntrl0.sequencer: Cache miss at [0xc62610, line 0xc62600]
160574367000: system.ruby.cp_cntrl0.sequencer: Cache miss at [0x13a7710, line 0x13a7700]
160574369000: system.ruby.cp_cntrl0.sequencer: Cache miss at [0x13a7710, line 0x13a7700]
160574371000: system.ruby.cp_cntrl0.sequencer: Cache miss at [0x13a7718, line 0x13a7700]
160574373000: system.ruby.cp_cntrl0.sequencer: Cache miss at [0x13a7718, line 0x13a7700]
160574375000: system.ruby.cp_cntrl0.sequencer: Cache miss at [0x13a7718, line 0x13a7700]
160574377000: system.ruby.cp_cntrl0.sequencer: Cache miss at [0x13a7720, line 0x13a7700]
160574379000: system.ruby.cp_cntrl0.sequencer: Cache miss at [0x13a7720, line 0x13a7700]
160574381000: system.ruby.cp_cntrl0.sequencer: Cache miss at [0x13a7720, line 0x13a7700]
160574382660: system.ruby.tcp_cntrl0.coalescer: ReadCallBack GPU Cache miss at <extra arg>%x
160574382660: system.ruby.tcp_cntrl0.coalescer: GPU Cache miss at [0x1386304, line 0x1386300]
160574383000: system.ruby.cp_cntrl0.sequencer: Cache miss at [0x38a68, line 0x38a40]
160574385000: system.ruby.cp_cntrl0.sequencer: Cache miss at [0x3fa8740, line 0x3fa8740]
160574387000: system.ruby.cp_cntrl0.sequencer: Cache miss at [0x10dfae8, line 0x10dfac0]
160574389000: system.ruby.cp_cntrl0.sequencer: Cache miss at [0x3fa8748, line 0x3fa8740]
160574391000: system.ruby.cp_cntrl0.sequencer: Cache miss at [0x3fa8748, line 0x3fa8740]
160574393000: system.ruby.cp_cntrl0.sequencer: Cache miss at [0x3fa8740, line 0x3fa8740]
160574395000: system.ruby.cp_cntrl0.sequencer: Cache miss at [0x38a68, line 0x38a40]
160574397000: system.ruby.cp_cntrl0.sequencer: Cache miss at [0xfaa3f0, line 0xfaa3c0]
160574399000: system.ruby.cp_cntrl0.sequencer: Cache miss at [0xfaa3f0, line 0xfaa3c0]
160574401000: system.ruby.cp_cntrl0.sequencer: Cache miss at [0xfaa3f8, line 0xfaa3c0]
160574403000: system.ruby.cp_cntrl0.sequencer: Cache miss at [0xf90c20, line 0xf90c00]
160574405000: system.ruby.cp_cntrl0.sequencer: Cache miss at [0xc62610, line 0xc62600]
160574407000: system.ruby.cp_cntrl0.sequencer: Cache miss at [0x13a7710, line 0x13a7700]
160574409000: system.ruby.cp_cntrl0.sequencer: Cache miss at [0x13a7710, line 0x13a7700]
160574411000: system.ruby.cp_cntrl0.sequencer: Cache miss at [0x13a7718, line 0x13a7700]
160574413000: system.ruby.cp_cntrl0.sequencer: Cache miss at [0x13a7718, line 0x13a7700]
160574415000: system.ruby.cp_cntrl0.sequencer: Cache miss at [0x13a7718, line 0x13a7700]
160574417000: system.ruby.cp_cntrl0.sequencer: Cache miss at [0x13a7720, line 0x13a7700]
160574419000: system.ruby.cp_cntrl0.sequencer: Cache miss at [0x13a7720, line 0x13a7700]
160574421000: system.ruby.cp_cntrl0.sequencer: Cache miss at [0x13a7720, line 0x13a7700]
160574423000: system.ruby.cp_cntrl0.sequencer: Cache miss at [0x38a68, line 0x38a40]
160574425000: system.ruby.cp_cntrl0.sequencer: Cache miss at [0x3fa8740, line 0x3fa8740]
160574427000: system.ruby.cp_cntrl0.sequencer: Cache miss at [0x10dfae8, line 0x10dfac0]
160574429000: system.ruby.cp_cntrl0.sequencer: Cache miss at [0x3fa8748, line 0x3fa8740]
160574431000: system.ruby.cp_cntrl0.sequencer: Cache miss at [0x3fa8748, line 0x3fa8740]
160574433000: system.ruby.cp_cntrl0.sequencer: Cache miss at [0x3fa8740, line 0x3fa8740]
160574435000: system.ruby.cp_cntrl0.sequencer: Cache miss at [0x38a68, line 0x38a40]
160574437000: system.ruby.cp_cntrl0.sequencer: Cache miss at [0xfaa3f0, line 0xfaa3c0]
160574439000: system.ruby.cp_cntrl0.sequencer: Cache miss at [0xfaa3f0, line 0xfaa3c0]
160574441000: system.ruby.cp_cntrl0.sequencer: Cache miss at [0xfaa3f8, line 0xfaa3c0]
160574443000: system.ruby.cp_cntrl0.sequencer: Cache miss at [0xf90c20, line 0xf90c00]
160574445000: system.ruby.cp_cntrl0.sequencer: Cache miss at [0xc62610, line 0xc62600]
160574447000: system.ruby.cp_cntrl0.sequencer: Cache miss at [0x13a7710, line 0x13a7700]
160574449000: system.ruby.cp_cntrl0.sequencer: Cache miss at [0x13a7710, line 0x13a7700]
160574451000: system.ruby.cp_cntrl0.sequencer: Cache miss at [0x13a7718, line 0x13a7700]
160574453000: system.ruby.cp_cntrl0.sequencer: Cache miss at [0x13a7718, line 0x13a7700]
160574455000: system.ruby.cp_cntrl0.sequencer: Cache miss at [0x13a7718, line 0x13a7700]
160574457000: system.ruby.cp_cntrl0.sequencer: Cache miss at [0x13a7720, line 0x13a7700]
160574459000: system.ruby.cp_cntrl0.sequencer: Cache miss at [0x13a7720, line 0x13a7700]
160574461000: system.ruby.cp_cntrl0.sequencer: Cache miss at [0x13a7720, line 0x13a7700]
160574463000: system.ruby.cp_cntrl0.sequencer: Cache miss at [0x38a68, line 0x38a40]
160574465000: system.ruby.cp_cntrl0.sequencer: Cache miss at [0x3fa8740, line 0x3fa8740]
160574467000: system.ruby.cp_cntrl0.sequencer: Cache miss at [0x10dfae8, line 0x10dfac0]
160574469000: system.ruby.cp_cntrl0.sequencer: Cache miss at [0x3fa8748, line 0x3fa8740]
160574471000: system.ruby.cp_cntrl0.sequencer: Cache miss at [0x3fa8748, line 0x3fa8740]
160574473000: system.ruby.cp_cntrl0.sequencer: Cache miss at [0x3fa8740, line 0x3fa8740]
160574475000: system.ruby.cp_cntrl0.sequencer: Cache miss at [0x38a68, line 0x38a40]
160574477000: system.ruby.cp_cntrl0.sequencer: Cache miss at [0xfaa3f0, line 0xfaa3c0]
160574479000: system.ruby.cp_cntrl0.sequencer: Cache miss at [0xfaa3f0, line 0xfaa3c0]
160574481000: system.ruby.cp_cntrl0.sequencer: Cache miss at [0xfaa3f8, line 0xfaa3c0]
160574483000: system.ruby.cp_cntrl0.sequencer: Cache miss at [0xf90c20, line 0xf90c00]
160574485000: system.ruby.cp_cntrl0.sequencer: Cache miss at [0xc62610, line 0xc62600]
160574487000: system.ruby.cp_cntrl0.sequencer: Cache miss at [0x13a7710, line 0x13a7700]
160574489000: system.ruby.cp_cntrl0.sequencer: Cache miss at [0x13a7710, line 0x13a7700]
160574491000: system.ruby.cp_cntrl0.sequencer: Cache miss at [0x13a7718, line 0x13a7700]
160574493000: system.ruby.cp_cntrl0.sequencer: Cache miss at [0x13a7718, line 0x13a7700]
160574495000: system.ruby.cp_cntrl0.sequencer: Cache miss at [0x13a7718, line 0x13a7700]
160574497000: system.ruby.cp_cntrl0.sequencer: Cache miss at [0x13a7720, line 0x13a7700]
160574499000: system.ruby.cp_cntrl0.sequencer: Cache miss at [0x13a7720, line 0x13a7700]
160574501000: system.ruby.cp_cntrl0.sequencer: Cache miss at [0x13a7720, line 0x13a7700]
160574503000: system.ruby.cp_cntrl0.sequencer: Cache miss at [0x38a68, line 0x38a40]
160574505000: system.ruby.cp_cntrl0.sequencer: Cache miss at [0x3fa8740, line 0x3fa8740]
160574507000: system.ruby.cp_cntrl0.sequencer: Cache miss at [0x10dfae8, line 0x10dfac0]
160574509000: system.ruby.cp_cntrl0.sequencer: Cache miss at [0x3fa8748, line 0x3fa8740]
160574511000: system.ruby.cp_cntrl0.sequencer: Cache miss at [0x3fa8748, line 0x3fa8740]
160574513000: system.ruby.cp_cntrl0.sequencer: Cache miss at [0x3fa8740, line 0x3fa8740]
160574515000: system.ruby.cp_cntrl0.sequencer: Cache miss at [0x38a68, line 0x38a40]
160574517000: system.ruby.cp_cntrl0.sequencer: Cache miss at [0xfaa3f0, line 0xfaa3c0]
160574518000: system.ruby.cp_cntrl1.sequencer: Cache hit at [0x4a868, line 0x4a840]
160574519000: system.ruby.cp_cntrl0.sequencer: Cache miss at [0xfaa3f0, line 0xfaa3c0]
160574520000: system.ruby.cp_cntrl1.sequencer: Cache miss at [0x3fab708, line 0x3fab700]
160574521000: system.ruby.cp_cntrl0.sequencer: Cache miss at [0xfaa3f8, line 0xfaa3c0]
160574522000: system.ruby.cp_cntrl1.sequencer: Cache miss at [0x139cb68, line 0x139cb40]
160574523000: system.ruby.cp_cntrl0.sequencer: Cache miss at [0xf90c20, line 0xf90c00]
160574524000: system.ruby.cp_cntrl1.sequencer: Cache miss at [0x3fa8c40, line 0x3fa8c40]
160574525000: system.ruby.cp_cntrl0.sequencer: Cache miss at [0xc62610, line 0xc62600]
160574526000: system.ruby.cp_cntrl1.sequencer: Cache miss at [0x3fa8c40, line 0x3fa8c40]
160574527000: system.ruby.cp_cntrl0.sequencer: Cache miss at [0x13a7710, line 0x13a7700]
160574528000: system.ruby.cp_cntrl1.sequencer: Cache miss at [0x3fa8c48, line 0x3fa8c40]
160574529000: system.ruby.cp_cntrl0.sequencer: Cache miss at [0x13a7710, line 0x13a7700]
160574530000: system.ruby.cp_cntrl1.sequencer: Cache miss at [0x10dfb80, line 0x10dfb80]
160574531000: system.ruby.cp_cntrl0.sequencer: Cache miss at [0x13a7718, line 0x13a7700]
160574532000: system.ruby.cp_cntrl1.sequencer: Cache miss at [0x3fa8c48, line 0x3fa8c40]
160574533000: system.ruby.cp_cntrl0.sequencer: Cache miss at [0x13a7718, line 0x13a7700]
160574534000: system.ruby.cp_cntrl1.sequencer: Cache miss at [0x3fa8c50, line 0x3fa8c40]
160574535000: system.ruby.cp_cntrl0.sequencer: Cache miss at [0x13a7718, line 0x13a7700]
160574536000: system.ruby.cp_cntrl1.sequencer: Cache miss at [0x3fa8c50, line 0x3fa8c40]
160574537000: system.ruby.cp_cntrl0.sequencer: Cache miss at [0x13a7720, line 0x13a7700]
160574538000: system.ruby.cp_cntrl1.sequencer: Cache miss at [0x3fa8c58, line 0x3fa8c40]
160574539000: system.ruby.cp_cntrl0.sequencer: Cache miss at [0x13a7720, line 0x13a7700]
160574539725: system.ruby.tcp_cntrl0.coalescer: ReadCallBack GPU Cache miss at <extra arg>%x
160574539725: system.ruby.tcp_cntrl0.coalescer: GPU Cache miss at [0x1386384, line 0x1386380]
160574540000: system.ruby.cp_cntrl1.sequencer: Cache miss at [0x3fa8c58, line 0x3fa8c40]
160574541000: system.ruby.cp_cntrl0.sequencer: Cache miss at [0x13a7720, line 0x13a7700]
160574542000: system.ruby.cp_cntrl1.sequencer: Cache miss at [0x10d5550, line 0x10d5540]
160574543000: system.ruby.cp_cntrl0.sequencer: Cache miss at [0x38a68, line 0x38a40]
160574544000: system.ruby.cp_cntrl1.sequencer: Cache miss at [0x3fa8c58, line 0x3fa8c40]
160574545000: system.ruby.cp_cntrl0.sequencer: Cache miss at [0x3fa8740, line 0x3fa8740]
160574546000: system.ruby.cp_cntrl1.sequencer: Cache miss at [0x3fa8c58, line 0x3fa8c40]
160574547000: system.ruby.cp_cntrl0.sequencer: Cache miss at [0x10dfae8, line 0x10dfac0]
160574548000: system.ruby.cp_cntrl1.sequencer: Cache miss at [0x3fa8c60, line 0x3fa8c40]
160574549000: system.ruby.cp_cntrl0.sequencer: Cache miss at [0x3fa8748, line 0x3fa8740]
160574550000: system.ruby.cp_cntrl1.sequencer: Cache miss at [0xc6a2b0, line 0xc6a280]
160574551000: system.ruby.cp_cntrl0.sequencer: Cache miss at [0x3fa8748, line 0x3fa8740]
160574552000: system.ruby.cp_cntrl1.sequencer: Cache miss at [0x3fa8c60, line 0x3fa8c40]
160574553000: system.ruby.cp_cntrl0.sequencer: Cache miss at [0x3fa8740, line 0x3fa8740]
160574554000: system.ruby.cp_cntrl1.sequencer: Cache miss at [0x1079c00, line 0x1079c00]
160574555000: system.ruby.cp_cntrl0.sequencer: Cache miss at [0x38a68, line 0x38a40]
160574556000: system.ruby.cp_cntrl1.sequencer: Cache miss at [0x1079c00, line 0x1079c00]
160574557000: system.ruby.cp_cntrl0.sequencer: Cache miss at [0xfaa3f0, line 0xfaa3c0]
160574558000: system.ruby.cp_cntrl1.sequencer: Cache miss at [0x1079c00, line 0x1079c00]
160574559000: system.ruby.cp_cntrl0.sequencer: Cache miss at [0xfaa3f0, line 0xfaa3c0]
160574560000: system.ruby.cp_cntrl1.sequencer: Cache miss at [0x1079c08, line 0x1079c00]
160574561000: system.ruby.cp_cntrl0.sequencer: Cache miss at [0xfaa3f8, line 0xfaa3c0]
160574562000: system.ruby.cp_cntrl1.sequencer: Cache miss at [0x10dfb88, line 0x10dfb80]
160574563000: system.ruby.cp_cntrl0.sequencer: Cache miss at [0xf90c20, line 0xf90c00]
160574564000: system.ruby.cp_cntrl1.sequencer: Cache miss at [0x1079c08, line 0x1079c00]
160574565000: system.ruby.cp_cntrl0.sequencer: Cache miss at [0xc62610, line 0xc62600]
160574566000: system.ruby.cp_cntrl1.sequencer: Cache miss at [0x1079c08, line 0x1079c00]
160574567000: system.ruby.cp_cntrl0.sequencer: Cache miss at [0x13a7710, line 0x13a7700]
160574568000: system.ruby.cp_cntrl1.sequencer: Cache miss at [0x1079c10, line 0x1079c00]
160574569000: system.ruby.cp_cntrl0.sequencer: Cache miss at [0x13a7710, line 0x13a7700]
160574570000: system.ruby.cp_cntrl1.sequencer: Cache miss at [0x10d55f0, line 0x10d55c0]
160574571000: system.ruby.cp_cntrl0.sequencer: Cache miss at [0x13a7718, line 0x13a7700]
160574572000: system.ruby.cp_cntrl1.sequencer: Cache miss at [0x1079c10, line 0x1079c00]
160574573000: system.ruby.cp_cntrl0.sequencer: Cache miss at [0x13a7718, line 0x13a7700]
160574574000: system.ruby.cp_cntrl1.sequencer: Cache miss at [0x10dfba0, line 0x10dfb80]
160574575000: system.ruby.cp_cntrl0.sequencer: Cache miss at [0x13a7718, line 0x13a7700]
160574576000: system.ruby.cp_cntrl1.sequencer: Cache miss at [0x1079c10, line 0x1079c00]
160574577000: system.ruby.cp_cntrl0.sequencer: Cache miss at [0x13a7720, line 0x13a7700]
160574578000: system.ruby.cp_cntrl1.sequencer: Cache miss at [0x1079c18, line 0x1079c00]
160574579000: system.ruby.cp_cntrl0.sequencer: Cache miss at [0x13a7720, line 0x13a7700]
160574580000: system.ruby.cp_cntrl1.sequencer: Cache miss at [0x1079c18, line 0x1079c00]
160574581000: system.ruby.cp_cntrl0.sequencer: Cache miss at [0x13a7720, line 0x13a7700]
Dummy value = 0
Ticks: 167654484500
Exiting because  exiting with last active thread context
