Global frequency set at 1000000000000 ticks per second
Forcing maxCoalescedReqs to 32 (TLB assoc.) 
Forcing maxCoalescedReqs to 32 (TLB assoc.) 
Forcing maxCoalescedReqs to 32 (TLB assoc.) 
Forcing maxCoalescedReqs to 32 (TLB assoc.) 
Forcing maxCoalescedReqs to 32 (TLB assoc.) 
Forcing maxCoalescedReqs to 32 (TLB assoc.) 
Forcing maxCoalescedReqs to 32 (TLB assoc.) 
Forcing maxCoalescedReqs to 32 (TLB assoc.) 
gem5 Simulator System.  https://www.gem5.org
gem5 is copyrighted software; use the --copyright option for details.

gem5 version DEVELOP-FOR-23.1
gem5 compiled Nov 19 2023 12:06:45
gem5 started Nov 20 2023 18:15:51
gem5 executing on 3a2f4e0f0db7, pid 1
command line: build/VEGA_X86/gem5.opt --debug-flag=RubyHitMiss --debug-start=160567481236 --debug-end=160575227925 configs/example/apu_se.py -n 3 --dgpu --gfx-version=gfx900 --num-compute-units=4 --cu-per-sa=4 --num-gpu-complex=1 --reg-alloc-policy=dynamic --num-tccs=8 --num-dirs=64 --mem-size=16GB --mem-type=HBM_2000_4H_1x64 --vreg-file-size=16384 --sreg-file-size=800 --tcc-size=256kB --gpu-clock=1801MHz --ruby-clock=1000MHz --vrf_lm_bus_latency=6 --mem-req-latency=69 --mem-resp-latency=69 --mandatory_queue_latency=1 --max-cu-tokens=160 --max-coalesces-per-cycle=10 --sqc-size=16kB --tcp-size=512B --scalar-mem-req-latency=28 --TCP_latency=4 --tcp-assoc=4 --tcp-num-banks=16 --TCC_latency=121 --tcc-assoc=16 --tcc-tag-access-latency=1 --tcc-data-access-latency=1 --tcp-rp=LRURP --WB_L2 --tcc-rp=LRURP -c gpu_test/lru_test_2

info: Standard input is not a terminal, disabling listeners.
Num SQC =  1 Num scalar caches =  1 Num CU =  4
160567483000: system.ruby.cp_cntrl0.sequencer: Cache miss at [0xfaa3f8, line 0xfaa3c0]
160567485000: system.ruby.cp_cntrl0.sequencer: Cache miss at [0xf90c20, line 0xf90c00]
160567487000: system.ruby.cp_cntrl0.sequencer: Cache miss at [0xc62610, line 0xc62600]
160567489000: system.ruby.cp_cntrl0.sequencer: Cache miss at [0x13a7710, line 0x13a7700]
160567491000: system.ruby.cp_cntrl0.sequencer: Cache miss at [0x13a7710, line 0x13a7700]
160567493000: system.ruby.cp_cntrl0.sequencer: Cache miss at [0x13a7718, line 0x13a7700]
160567495000: system.ruby.cp_cntrl0.sequencer: Cache miss at [0x13a7718, line 0x13a7700]
160567497000: system.ruby.cp_cntrl0.sequencer: Cache miss at [0x13a7718, line 0x13a7700]
160567499000: system.ruby.cp_cntrl0.sequencer: Cache miss at [0x13a7720, line 0x13a7700]
160567501000: system.ruby.cp_cntrl0.sequencer: Cache miss at [0x13a7720, line 0x13a7700]
160567503000: system.ruby.cp_cntrl0.sequencer: Cache miss at [0x13a7720, line 0x13a7700]
160567505000: system.ruby.cp_cntrl0.sequencer: Cache miss at [0x38a68, line 0x38a40]
160567507000: system.ruby.cp_cntrl0.sequencer: Cache miss at [0x3fa8740, line 0x3fa8740]
160567509000: system.ruby.cp_cntrl0.sequencer: Cache miss at [0x10df8a8, line 0x10df880]
160567511000: system.ruby.cp_cntrl0.sequencer: Cache miss at [0x3fa8748, line 0x3fa8740]
160567513000: system.ruby.cp_cntrl0.sequencer: Cache miss at [0x3fa8748, line 0x3fa8740]
160567515000: system.ruby.cp_cntrl0.sequencer: Cache miss at [0x3fa8740, line 0x3fa8740]
160567517000: system.ruby.cp_cntrl0.sequencer: Cache miss at [0x38a68, line 0x38a40]
160567519000: system.ruby.cp_cntrl0.sequencer: Cache miss at [0xfaa3f0, line 0xfaa3c0]
160567521000: system.ruby.cp_cntrl0.sequencer: Cache miss at [0xfaa3f0, line 0xfaa3c0]
160567523000: system.ruby.cp_cntrl0.sequencer: Cache miss at [0xfaa3f8, line 0xfaa3c0]
160567525000: system.ruby.cp_cntrl0.sequencer: Cache miss at [0xf90c20, line 0xf90c00]
160567527000: system.ruby.cp_cntrl0.sequencer: Cache miss at [0xc62610, line 0xc62600]
160567529000: system.ruby.cp_cntrl0.sequencer: Cache miss at [0x13a7710, line 0x13a7700]
160567531000: system.ruby.cp_cntrl0.sequencer: Cache miss at [0x13a7710, line 0x13a7700]
160567533000: system.ruby.cp_cntrl0.sequencer: Cache miss at [0x13a7718, line 0x13a7700]
160567535000: system.ruby.cp_cntrl0.sequencer: Cache miss at [0x13a7718, line 0x13a7700]
160567537000: system.ruby.cp_cntrl0.sequencer: Cache miss at [0x13a7718, line 0x13a7700]
160567539000: system.ruby.cp_cntrl0.sequencer: Cache miss at [0x13a7720, line 0x13a7700]
160567541000: system.ruby.cp_cntrl0.sequencer: Cache miss at [0x13a7720, line 0x13a7700]
160567543000: system.ruby.cp_cntrl0.sequencer: Cache miss at [0x13a7720, line 0x13a7700]
160567545000: system.ruby.cp_cntrl0.sequencer: Cache miss at [0x38a68, line 0x38a40]
160567547000: system.ruby.cp_cntrl0.sequencer: Cache miss at [0x3fa8740, line 0x3fa8740]
160567549000: system.ruby.cp_cntrl0.sequencer: Cache miss at [0x10df8a8, line 0x10df880]
160567551000: system.ruby.cp_cntrl0.sequencer: Cache miss at [0x3fa8748, line 0x3fa8740]
160567553000: system.ruby.cp_cntrl0.sequencer: Cache miss at [0x3fa8748, line 0x3fa8740]
160567555000: system.ruby.cp_cntrl0.sequencer: Cache miss at [0x3fa8740, line 0x3fa8740]
160567557000: system.ruby.cp_cntrl0.sequencer: Cache miss at [0x38a68, line 0x38a40]
160567559000: system.ruby.cp_cntrl0.sequencer: Cache miss at [0xfaa3f0, line 0xfaa3c0]
160567561000: system.ruby.cp_cntrl0.sequencer: Cache miss at [0xfaa3f0, line 0xfaa3c0]
160567563000: system.ruby.cp_cntrl0.sequencer: Cache miss at [0xfaa3f8, line 0xfaa3c0]
160567565000: system.ruby.cp_cntrl0.sequencer: Cache miss at [0xf90c20, line 0xf90c00]
160567567000: system.ruby.cp_cntrl0.sequencer: Cache miss at [0xc62610, line 0xc62600]
160567569000: system.ruby.cp_cntrl0.sequencer: Cache miss at [0x13a7710, line 0x13a7700]
160567571000: system.ruby.cp_cntrl0.sequencer: Cache miss at [0x13a7710, line 0x13a7700]
160567573000: system.ruby.cp_cntrl0.sequencer: Cache miss at [0x13a7718, line 0x13a7700]
160567575000: system.ruby.cp_cntrl0.sequencer: Cache miss at [0x13a7718, line 0x13a7700]
160567577000: system.ruby.cp_cntrl0.sequencer: Cache miss at [0x13a7718, line 0x13a7700]
160567579000: system.ruby.cp_cntrl0.sequencer: Cache miss at [0x13a7720, line 0x13a7700]
160567581000: system.ruby.cp_cntrl0.sequencer: Cache miss at [0x13a7720, line 0x13a7700]
160567583000: system.ruby.cp_cntrl0.sequencer: Cache miss at [0x13a7720, line 0x13a7700]
160567585000: system.ruby.cp_cntrl0.sequencer: Cache miss at [0x38a68, line 0x38a40]
160567587000: system.ruby.cp_cntrl0.sequencer: Cache miss at [0x3fa8740, line 0x3fa8740]
160567589000: system.ruby.cp_cntrl0.sequencer: Cache miss at [0x10df8a8, line 0x10df880]
160567591000: system.ruby.cp_cntrl0.sequencer: Cache miss at [0x3fa8748, line 0x3fa8740]
160567593000: system.ruby.cp_cntrl0.sequencer: Cache miss at [0x3fa8748, line 0x3fa8740]
160567595000: system.ruby.cp_cntrl0.sequencer: Cache miss at [0x3fa8740, line 0x3fa8740]
160567597000: system.ruby.cp_cntrl0.sequencer: Cache miss at [0x38a68, line 0x38a40]
160567599000: system.ruby.cp_cntrl0.sequencer: Cache miss at [0xfaa3f0, line 0xfaa3c0]
160567601000: system.ruby.cp_cntrl0.sequencer: Cache miss at [0xfaa3f0, line 0xfaa3c0]
160567603000: system.ruby.cp_cntrl0.sequencer: Cache miss at [0xfaa3f8, line 0xfaa3c0]
160567605000: system.ruby.cp_cntrl0.sequencer: Cache miss at [0xf90c20, line 0xf90c00]
160567607000: system.ruby.cp_cntrl0.sequencer: Cache miss at [0xc62610, line 0xc62600]
160567609000: system.ruby.cp_cntrl0.sequencer: Cache miss at [0x13a7710, line 0x13a7700]
160567611000: system.ruby.cp_cntrl0.sequencer: Cache miss at [0x13a7710, line 0x13a7700]
160567613000: system.ruby.cp_cntrl0.sequencer: Cache miss at [0x13a7718, line 0x13a7700]
160567615000: system.ruby.cp_cntrl0.sequencer: Cache miss at [0x13a7718, line 0x13a7700]
160567617000: system.ruby.cp_cntrl0.sequencer: Cache miss at [0x13a7718, line 0x13a7700]
160567619000: system.ruby.cp_cntrl0.sequencer: Cache miss at [0x13a7720, line 0x13a7700]
160567621000: system.ruby.cp_cntrl0.sequencer: Cache miss at [0x13a7720, line 0x13a7700]
160567623000: system.ruby.cp_cntrl0.sequencer: Cache miss at [0x13a7720, line 0x13a7700]
160567625000: system.ruby.cp_cntrl0.sequencer: Cache miss at [0x38a68, line 0x38a40]
160567627000: system.ruby.cp_cntrl0.sequencer: Cache miss at [0x3fa8740, line 0x3fa8740]
160567629000: system.ruby.cp_cntrl0.sequencer: Cache miss at [0x10df8a8, line 0x10df880]
160567631000: system.ruby.cp_cntrl0.sequencer: Cache miss at [0x3fa8748, line 0x3fa8740]
160567633000: system.ruby.cp_cntrl0.sequencer: Cache miss at [0x3fa8748, line 0x3fa8740]
160567635000: system.ruby.cp_cntrl0.sequencer: Cache miss at [0x3fa8740, line 0x3fa8740]
160567637000: system.ruby.cp_cntrl0.sequencer: Cache miss at [0x38a68, line 0x38a40]
160567639000: system.ruby.cp_cntrl0.sequencer: Cache miss at [0xfaa3f0, line 0xfaa3c0]
160567641000: system.ruby.cp_cntrl0.sequencer: Cache miss at [0xfaa3f0, line 0xfaa3c0]
160567643000: system.ruby.cp_cntrl0.sequencer: Cache miss at [0xfaa3f8, line 0xfaa3c0]
160567645000: system.ruby.cp_cntrl0.sequencer: Cache miss at [0xf90c20, line 0xf90c00]
160567647000: system.ruby.cp_cntrl0.sequencer: Cache miss at [0xc62610, line 0xc62600]
160567649000: system.ruby.cp_cntrl0.sequencer: Cache miss at [0x13a7710, line 0x13a7700]
160567651000: system.ruby.cp_cntrl0.sequencer: Cache miss at [0x13a7710, line 0x13a7700]
160567653000: system.ruby.cp_cntrl0.sequencer: Cache miss at [0x13a7718, line 0x13a7700]
160567655000: system.ruby.cp_cntrl0.sequencer: Cache miss at [0x13a7718, line 0x13a7700]
160567657000: system.ruby.cp_cntrl0.sequencer: Cache miss at [0x13a7718, line 0x13a7700]
160567659000: system.ruby.cp_cntrl0.sequencer: Cache miss at [0x13a7720, line 0x13a7700]
160567661000: system.ruby.cp_cntrl0.sequencer: Cache miss at [0x13a7720, line 0x13a7700]
160567663000: system.ruby.cp_cntrl0.sequencer: Cache miss at [0x13a7720, line 0x13a7700]
160567665000: system.ruby.cp_cntrl0.sequencer: Cache miss at [0x38a68, line 0x38a40]
160567667000: system.ruby.cp_cntrl0.sequencer: Cache miss at [0x3fa8740, line 0x3fa8740]
160567669000: system.ruby.cp_cntrl0.sequencer: Cache miss at [0x10df8a8, line 0x10df880]
160567671000: system.ruby.cp_cntrl0.sequencer: Cache miss at [0x3fa8748, line 0x3fa8740]
160567673000: system.ruby.cp_cntrl0.sequencer: Cache miss at [0x3fa8748, line 0x3fa8740]
160567675000: system.ruby.cp_cntrl0.sequencer: Cache miss at [0x3fa8740, line 0x3fa8740]
160567677000: system.ruby.cp_cntrl0.sequencer: Cache miss at [0x38a68, line 0x38a40]
160567679000: system.ruby.cp_cntrl0.sequencer: Cache miss at [0xfaa3f0, line 0xfaa3c0]
160567681000: system.ruby.cp_cntrl0.sequencer: Cache miss at [0xfaa3f0, line 0xfaa3c0]
160567683000: system.ruby.cp_cntrl1.sequencer: Cache hit at [0x10d5bc8, line 0x10d5bc0]
160567683000: system.ruby.cp_cntrl0.sequencer: Cache miss at [0xfaa3f8, line 0xfaa3c0]
160567685000: system.ruby.cp_cntrl0.sequencer: Cache miss at [0xf90c20, line 0xf90c00]
160567685000: system.ruby.cp_cntrl1.sequencer: Cache miss at [0x138bf90, line 0x138bf80]
160567687000: system.ruby.cp_cntrl1.sequencer: Cache miss at [0x138bf90, line 0x138bf80]
160567687000: system.ruby.cp_cntrl0.sequencer: Cache miss at [0xc62610, line 0xc62600]
160567689000: system.ruby.cp_cntrl0.sequencer: Cache miss at [0x13a7710, line 0x13a7700]
160567689000: system.ruby.cp_cntrl1.sequencer: Cache miss at [0x138bf98, line 0x138bf80]
160567691000: system.ruby.cp_cntrl1.sequencer: Cache miss at [0x10d5bd0, line 0x10d5bc0]
160567691000: system.ruby.cp_cntrl0.sequencer: Cache miss at [0x13a7710, line 0x13a7700]
160567693000: system.ruby.cp_cntrl0.sequencer: Cache miss at [0x13a7718, line 0x13a7700]
160567693000: system.ruby.cp_cntrl1.sequencer: Cache miss at [0x138bf98, line 0x138bf80]
160567695000: system.ruby.cp_cntrl1.sequencer: Cache miss at [0x138bf98, line 0x138bf80]
160567695000: system.ruby.cp_cntrl0.sequencer: Cache miss at [0x13a7718, line 0x13a7700]
160567697000: system.ruby.cp_cntrl0.sequencer: Cache miss at [0x13a7718, line 0x13a7700]
160567697000: system.ruby.cp_cntrl1.sequencer: Cache miss at [0x138bfa0, line 0x138bf80]
160567699000: system.ruby.cp_cntrl0.sequencer: Cache miss at [0x13a7720, line 0x13a7700]
160567701000: system.ruby.cp_cntrl0.sequencer: Cache miss at [0x13a7720, line 0x13a7700]
160567703000: system.ruby.cp_cntrl0.sequencer: Cache miss at [0x13a7720, line 0x13a7700]
160567705000: system.ruby.cp_cntrl0.sequencer: Cache miss at [0x38a68, line 0x38a40]
160567707000: system.ruby.cp_cntrl0.sequencer: Cache miss at [0x3fa8740, line 0x3fa8740]
160567709000: system.ruby.cp_cntrl0.sequencer: Cache miss at [0x10df8a8, line 0x10df880]
160567711000: system.ruby.cp_cntrl0.sequencer: Cache miss at [0x3fa8748, line 0x3fa8740]
160567713000: system.ruby.cp_cntrl0.sequencer: Cache miss at [0x3fa8748, line 0x3fa8740]
160567715000: system.ruby.cp_cntrl0.sequencer: Cache miss at [0x3fa8740, line 0x3fa8740]
160567717000: system.ruby.cp_cntrl0.sequencer: Cache miss at [0x38a68, line 0x38a40]
160567719000: system.ruby.cp_cntrl0.sequencer: Cache miss at [0xfaa3f0, line 0xfaa3c0]
160567721000: system.ruby.cp_cntrl0.sequencer: Cache miss at [0xfaa3f0, line 0xfaa3c0]
160567723000: system.ruby.cp_cntrl0.sequencer: Cache miss at [0xfaa3f8, line 0xfaa3c0]
160567725000: system.ruby.cp_cntrl0.sequencer: Cache miss at [0xf90c20, line 0xf90c00]
160567727000: system.ruby.cp_cntrl0.sequencer: Cache miss at [0xc62610, line 0xc62600]
160567729000: system.ruby.cp_cntrl0.sequencer: Cache miss at [0x13a7710, line 0x13a7700]
160567731000: system.ruby.cp_cntrl0.sequencer: Cache miss at [0x13a7710, line 0x13a7700]
160567733000: system.ruby.cp_cntrl0.sequencer: Cache miss at [0x13a7718, line 0x13a7700]
160567735000: system.ruby.cp_cntrl0.sequencer: Cache miss at [0x13a7718, line 0x13a7700]
160567737000: system.ruby.cp_cntrl0.sequencer: Cache miss at [0x13a7718, line 0x13a7700]
160567739000: system.ruby.cp_cntrl0.sequencer: Cache miss at [0x13a7720, line 0x13a7700]
160567741000: system.ruby.cp_cntrl0.sequencer: Cache miss at [0x13a7720, line 0x13a7700]
160567743000: system.ruby.cp_cntrl0.sequencer: Cache miss at [0x13a7720, line 0x13a7700]
160567745000: system.ruby.cp_cntrl0.sequencer: Cache miss at [0x38a68, line 0x38a40]
160567747000: system.ruby.cp_cntrl0.sequencer: Cache miss at [0x3fa8740, line 0x3fa8740]
160567749000: system.ruby.cp_cntrl0.sequencer: Cache miss at [0x10df8a8, line 0x10df880]
160567751000: system.ruby.cp_cntrl0.sequencer: Cache miss at [0x3fa8748, line 0x3fa8740]
160567753000: system.ruby.cp_cntrl0.sequencer: Cache miss at [0x3fa8748, line 0x3fa8740]
160567755000: system.ruby.cp_cntrl0.sequencer: Cache miss at [0x3fa8740, line 0x3fa8740]
160567757000: system.ruby.cp_cntrl0.sequencer: Cache miss at [0x38a68, line 0x38a40]
160567759000: system.ruby.cp_cntrl0.sequencer: Cache miss at [0xfaa3f0, line 0xfaa3c0]
160567761000: system.ruby.cp_cntrl0.sequencer: Cache miss at [0xfaa3f0, line 0xfaa3c0]
160567763000: system.ruby.cp_cntrl0.sequencer: Cache miss at [0xfaa3f8, line 0xfaa3c0]
160567765000: system.ruby.cp_cntrl0.sequencer: Cache miss at [0xf90c20, line 0xf90c00]
160567767000: system.ruby.cp_cntrl0.sequencer: Cache miss at [0xc62610, line 0xc62600]
160567769000: system.ruby.cp_cntrl0.sequencer: Cache miss at [0x13a7710, line 0x13a7700]
160567771000: system.ruby.cp_cntrl0.sequencer: Cache miss at [0x13a7710, line 0x13a7700]
160567773000: system.ruby.cp_cntrl0.sequencer: Cache miss at [0x13a7718, line 0x13a7700]
160567775000: system.ruby.cp_cntrl0.sequencer: Cache miss at [0x13a7718, line 0x13a7700]
160567777000: system.ruby.cp_cntrl0.sequencer: Cache miss at [0x13a7718, line 0x13a7700]
160567779000: system.ruby.cp_cntrl0.sequencer: Cache miss at [0x13a7720, line 0x13a7700]
160567781000: system.ruby.cp_cntrl0.sequencer: Cache miss at [0x13a7720, line 0x13a7700]
160567783000: system.ruby.cp_cntrl0.sequencer: Cache miss at [0x13a7720, line 0x13a7700]
160567785000: system.ruby.cp_cntrl0.sequencer: Cache miss at [0x38a68, line 0x38a40]
160567787000: system.ruby.cp_cntrl0.sequencer: Cache miss at [0x3fa8740, line 0x3fa8740]
160567789000: system.ruby.cp_cntrl0.sequencer: Cache miss at [0x10df8a8, line 0x10df880]
160567791000: system.ruby.cp_cntrl0.sequencer: Cache miss at [0x3fa8748, line 0x3fa8740]
160567793000: system.ruby.cp_cntrl0.sequencer: Cache miss at [0x3fa8748, line 0x3fa8740]
160567795000: system.ruby.cp_cntrl0.sequencer: Cache miss at [0x3fa8740, line 0x3fa8740]
160567797000: system.ruby.cp_cntrl0.sequencer: Cache miss at [0x38a68, line 0x38a40]
160567799000: system.ruby.cp_cntrl0.sequencer: Cache miss at [0xfaa3f0, line 0xfaa3c0]
160567801000: system.ruby.cp_cntrl0.sequencer: Cache miss at [0xfaa3f0, line 0xfaa3c0]
160567803000: system.ruby.cp_cntrl0.sequencer: Cache miss at [0xfaa3f8, line 0xfaa3c0]
160567805000: system.ruby.cp_cntrl0.sequencer: Cache miss at [0xf90c20, line 0xf90c00]
160567807000: system.ruby.cp_cntrl0.sequencer: Cache miss at [0xc62610, line 0xc62600]
160567809000: system.ruby.cp_cntrl0.sequencer: Cache miss at [0x13a7710, line 0x13a7700]
160567811000: system.ruby.cp_cntrl0.sequencer: Cache miss at [0x13a7710, line 0x13a7700]
160567813000: system.ruby.cp_cntrl0.sequencer: Cache miss at [0x13a7718, line 0x13a7700]
160567815000: system.ruby.cp_cntrl0.sequencer: Cache miss at [0x13a7718, line 0x13a7700]
160567817000: system.ruby.cp_cntrl0.sequencer: Cache miss at [0x13a7718, line 0x13a7700]
160567819000: system.ruby.cp_cntrl0.sequencer: Cache miss at [0x13a7720, line 0x13a7700]
160567821000: system.ruby.cp_cntrl0.sequencer: Cache miss at [0x13a7720, line 0x13a7700]
160567823000: system.ruby.cp_cntrl0.sequencer: Cache miss at [0x13a7720, line 0x13a7700]
160567825000: system.ruby.cp_cntrl0.sequencer: Cache miss at [0x38a68, line 0x38a40]
160567827000: system.ruby.cp_cntrl0.sequencer: Cache miss at [0x3fa8740, line 0x3fa8740]
160567829000: system.ruby.cp_cntrl0.sequencer: Cache miss at [0x10df8a8, line 0x10df880]
160567831000: system.ruby.cp_cntrl0.sequencer: Cache miss at [0x3fa8748, line 0x3fa8740]
160567833000: system.ruby.cp_cntrl0.sequencer: Cache miss at [0x3fa8748, line 0x3fa8740]
160567835000: system.ruby.cp_cntrl0.sequencer: Cache miss at [0x3fa8740, line 0x3fa8740]
160567837000: system.ruby.cp_cntrl0.sequencer: Cache miss at [0x38a68, line 0x38a40]
160567839000: system.ruby.cp_cntrl0.sequencer: Cache miss at [0xfaa3f0, line 0xfaa3c0]
160567841000: system.ruby.cp_cntrl0.sequencer: Cache miss at [0xfaa3f0, line 0xfaa3c0]
160567843000: system.ruby.cp_cntrl0.sequencer: Cache miss at [0xfaa3f8, line 0xfaa3c0]
160567845000: system.ruby.cp_cntrl0.sequencer: Cache miss at [0xf90c20, line 0xf90c00]
160567847000: system.ruby.cp_cntrl0.sequencer: Cache miss at [0xc62610, line 0xc62600]
160567849000: system.ruby.cp_cntrl0.sequencer: Cache miss at [0x13a7710, line 0x13a7700]
160567851000: system.ruby.cp_cntrl0.sequencer: Cache miss at [0x13a7710, line 0x13a7700]
160567853000: system.ruby.cp_cntrl0.sequencer: Cache miss at [0x13a7718, line 0x13a7700]
160567855000: system.ruby.cp_cntrl0.sequencer: Cache miss at [0x13a7718, line 0x13a7700]
160567857000: system.ruby.cp_cntrl0.sequencer: Cache miss at [0x13a7718, line 0x13a7700]
160567859000: system.ruby.cp_cntrl0.sequencer: Cache miss at [0x13a7720, line 0x13a7700]
160567861000: system.ruby.cp_cntrl0.sequencer: Cache miss at [0x13a7720, line 0x13a7700]
160567863000: system.ruby.cp_cntrl0.sequencer: Cache miss at [0x13a7720, line 0x13a7700]
160567865000: system.ruby.cp_cntrl0.sequencer: Cache miss at [0x38a68, line 0x38a40]
160567867000: system.ruby.cp_cntrl0.sequencer: Cache miss at [0x3fa8740, line 0x3fa8740]
160567869000: system.ruby.cp_cntrl0.sequencer: Cache miss at [0x10df8a8, line 0x10df880]
160567871000: system.ruby.cp_cntrl0.sequencer: Cache miss at [0x3fa8748, line 0x3fa8740]
160567873000: system.ruby.cp_cntrl0.sequencer: Cache miss at [0x3fa8748, line 0x3fa8740]
160567875000: system.ruby.cp_cntrl0.sequencer: Cache miss at [0x3fa8740, line 0x3fa8740]
160567877000: system.ruby.cp_cntrl0.sequencer: Cache miss at [0x38a68, line 0x38a40]
160567879000: system.ruby.cp_cntrl0.sequencer: Cache miss at [0xfaa3f0, line 0xfaa3c0]
160567881000: system.ruby.cp_cntrl0.sequencer: Cache miss at [0xfaa3f0, line 0xfaa3c0]
160567883000: system.ruby.cp_cntrl0.sequencer: Cache miss at [0xfaa3f8, line 0xfaa3c0]
160567885000: system.ruby.cp_cntrl0.sequencer: Cache miss at [0xf90c20, line 0xf90c00]
160567887000: system.ruby.cp_cntrl0.sequencer: Cache miss at [0xc62610, line 0xc62600]
160567889000: system.ruby.cp_cntrl0.sequencer: Cache miss at [0x13a7710, line 0x13a7700]
160567891000: system.ruby.cp_cntrl0.sequencer: Cache miss at [0x13a7710, line 0x13a7700]
160567893000: system.ruby.cp_cntrl0.sequencer: Cache miss at [0x13a7718, line 0x13a7700]
160567895000: system.ruby.cp_cntrl0.sequencer: Cache miss at [0x13a7718, line 0x13a7700]
160567897000: system.ruby.cp_cntrl0.sequencer: Cache miss at [0x13a7718, line 0x13a7700]
160567899000: system.ruby.cp_cntrl0.sequencer: Cache miss at [0x13a7720, line 0x13a7700]
160567901000: system.ruby.cp_cntrl0.sequencer: Cache miss at [0x13a7720, line 0x13a7700]
160567903000: system.ruby.cp_cntrl0.sequencer: Cache miss at [0x13a7720, line 0x13a7700]
160567905000: system.ruby.cp_cntrl0.sequencer: Cache miss at [0x38a68, line 0x38a40]
160567907000: system.ruby.cp_cntrl0.sequencer: Cache miss at [0x3fa8740, line 0x3fa8740]
160567909000: system.ruby.cp_cntrl0.sequencer: Cache miss at [0x10df8a8, line 0x10df880]
160567911000: system.ruby.cp_cntrl0.sequencer: Cache miss at [0x3fa8748, line 0x3fa8740]
160567913000: system.ruby.cp_cntrl0.sequencer: Cache miss at [0x3fa8748, line 0x3fa8740]
160567915000: system.ruby.cp_cntrl0.sequencer: Cache miss at [0x3fa8740, line 0x3fa8740]
160567917000: system.ruby.cp_cntrl0.sequencer: Cache miss at [0x38a68, line 0x38a40]
160567919000: system.ruby.cp_cntrl0.sequencer: Cache miss at [0xfaa3f0, line 0xfaa3c0]
160567921000: system.ruby.cp_cntrl0.sequencer: Cache miss at [0xfaa3f0, line 0xfaa3c0]
160567923000: system.ruby.cp_cntrl0.sequencer: Cache miss at [0xfaa3f8, line 0xfaa3c0]
160567925000: system.ruby.cp_cntrl0.sequencer: Cache miss at [0xf90c20, line 0xf90c00]
160567927000: system.ruby.cp_cntrl0.sequencer: Cache miss at [0xc62610, line 0xc62600]
160567929000: system.ruby.cp_cntrl0.sequencer: Cache miss at [0x13a7710, line 0x13a7700]
160567931000: system.ruby.cp_cntrl0.sequencer: Cache miss at [0x13a7710, line 0x13a7700]
160567933000: system.ruby.cp_cntrl0.sequencer: Cache miss at [0x13a7718, line 0x13a7700]
160567935000: system.ruby.cp_cntrl0.sequencer: Cache miss at [0x13a7718, line 0x13a7700]
160567937000: system.ruby.cp_cntrl0.sequencer: Cache miss at [0x13a7718, line 0x13a7700]
160567939000: system.ruby.cp_cntrl0.sequencer: Cache miss at [0x13a7720, line 0x13a7700]
160567941000: system.ruby.cp_cntrl0.sequencer: Cache miss at [0x13a7720, line 0x13a7700]
160567943000: system.ruby.cp_cntrl0.sequencer: Cache miss at [0x13a7720, line 0x13a7700]
160567945000: system.ruby.cp_cntrl0.sequencer: Cache miss at [0x38a68, line 0x38a40]
160567947000: system.ruby.cp_cntrl0.sequencer: Cache miss at [0x3fa8740, line 0x3fa8740]
160567949000: system.ruby.cp_cntrl0.sequencer: Cache miss at [0x10df8a8, line 0x10df880]
160567951000: system.ruby.cp_cntrl0.sequencer: Cache miss at [0x3fa8748, line 0x3fa8740]
160567953000: system.ruby.cp_cntrl0.sequencer: Cache miss at [0x3fa8748, line 0x3fa8740]
160567955000: system.ruby.cp_cntrl0.sequencer: Cache miss at [0x3fa8740, line 0x3fa8740]
160567957000: system.ruby.cp_cntrl0.sequencer: Cache miss at [0x38a68, line 0x38a40]
160567959000: system.ruby.cp_cntrl0.sequencer: Cache miss at [0xfaa3f0, line 0xfaa3c0]
160567961000: system.ruby.cp_cntrl0.sequencer: Cache miss at [0xfaa3f0, line 0xfaa3c0]
160567963000: system.ruby.cp_cntrl0.sequencer: Cache miss at [0xfaa3f8, line 0xfaa3c0]
160567965000: system.ruby.cp_cntrl0.sequencer: Cache miss at [0xf90c20, line 0xf90c00]
160567967000: system.ruby.cp_cntrl0.sequencer: Cache miss at [0xc62610, line 0xc62600]
160567969000: system.ruby.cp_cntrl0.sequencer: Cache miss at [0x13a7710, line 0x13a7700]
160567971000: system.ruby.cp_cntrl0.sequencer: Cache miss at [0x13a7710, line 0x13a7700]
160567973000: system.ruby.cp_cntrl0.sequencer: Cache miss at [0x13a7718, line 0x13a7700]
160567975000: system.ruby.cp_cntrl0.sequencer: Cache miss at [0x13a7718, line 0x13a7700]
160567977000: system.ruby.cp_cntrl0.sequencer: Cache miss at [0x13a7718, line 0x13a7700]
160567979000: system.ruby.cp_cntrl0.sequencer: Cache miss at [0x13a7720, line 0x13a7700]
160567981000: system.ruby.cp_cntrl0.sequencer: Cache miss at [0x13a7720, line 0x13a7700]
160567983000: system.ruby.cp_cntrl0.sequencer: Cache miss at [0x13a7720, line 0x13a7700]
160567985000: system.ruby.cp_cntrl0.sequencer: Cache miss at [0x38a68, line 0x38a40]
160567987000: system.ruby.cp_cntrl0.sequencer: Cache miss at [0x3fa8740, line 0x3fa8740]
160567989000: system.ruby.cp_cntrl0.sequencer: Cache miss at [0x10df8a8, line 0x10df880]
160567991000: system.ruby.cp_cntrl0.sequencer: Cache miss at [0x3fa8748, line 0x3fa8740]
160567993000: system.ruby.cp_cntrl0.sequencer: Cache miss at [0x3fa8748, line 0x3fa8740]
160567995000: system.ruby.cp_cntrl0.sequencer: Cache miss at [0x3fa8740, line 0x3fa8740]
160567997000: system.ruby.cp_cntrl0.sequencer: Cache miss at [0x38a68, line 0x38a40]
160567999000: system.ruby.cp_cntrl0.sequencer: Cache miss at [0xfaa3f0, line 0xfaa3c0]
160568001000: system.ruby.cp_cntrl0.sequencer: Cache miss at [0xfaa3f0, line 0xfaa3c0]
160568003000: system.ruby.cp_cntrl0.sequencer: Cache miss at [0xfaa3f8, line 0xfaa3c0]
160568005000: system.ruby.cp_cntrl0.sequencer: Cache miss at [0xf90c20, line 0xf90c00]
160568007000: system.ruby.cp_cntrl0.sequencer: Cache miss at [0xc62610, line 0xc62600]
160568009000: system.ruby.cp_cntrl0.sequencer: Cache miss at [0x13a7710, line 0x13a7700]
160568011000: system.ruby.cp_cntrl0.sequencer: Cache miss at [0x13a7710, line 0x13a7700]
160568013000: system.ruby.cp_cntrl0.sequencer: Cache miss at [0x13a7718, line 0x13a7700]
160568015000: system.ruby.cp_cntrl0.sequencer: Cache miss at [0x13a7718, line 0x13a7700]
160568016000: system.ruby.cp_cntrl1.sequencer: Cache hit at [0x10d9b08, line 0x10d9b00]
160568017000: system.ruby.cp_cntrl0.sequencer: Cache miss at [0x13a7718, line 0x13a7700]
160568018000: system.ruby.cp_cntrl1.sequencer: Cache miss at [0x138bfa0, line 0x138bf80]
160568019000: system.ruby.cp_cntrl0.sequencer: Cache miss at [0x13a7720, line 0x13a7700]
160568020000: system.ruby.cp_cntrl1.sequencer: Cache miss at [0x10d5bc8, line 0x10d5bc0]
160568021000: system.ruby.cp_cntrl0.sequencer: Cache miss at [0x13a7720, line 0x13a7700]
160568022000: system.ruby.cp_cntrl1.sequencer: Cache miss at [0x138bfa0, line 0x138bf80]
160568023000: system.ruby.cp_cntrl0.sequencer: Cache miss at [0x13a7720, line 0x13a7700]
160568024000: system.ruby.cp_cntrl1.sequencer: Cache miss at [0x138bfa8, line 0x138bf80]
160568025000: system.ruby.cp_cntrl0.sequencer: Cache miss at [0x38a68, line 0x38a40]
160568026000: system.ruby.cp_cntrl1.sequencer: Cache miss at [0x138bfa8, line 0x138bf80]
160568027000: system.ruby.cp_cntrl0.sequencer: Cache miss at [0x3fa8740, line 0x3fa8740]
160568028000: system.ruby.cp_cntrl1.sequencer: Cache miss at [0x138bfa8, line 0x138bf80]
160568029000: system.ruby.cp_cntrl0.sequencer: Cache miss at [0x10df8a8, line 0x10df880]
160568030000: system.ruby.cp_cntrl1.sequencer: Cache miss at [0x138bfb0, line 0x138bf80]
160568031000: system.ruby.cp_cntrl0.sequencer: Cache miss at [0x3fa8748, line 0x3fa8740]
160568032000: system.ruby.cp_cntrl1.sequencer: Cache miss at [0x138bfb0, line 0x138bf80]
160568033000: system.ruby.cp_cntrl0.sequencer: Cache miss at [0x3fa8748, line 0x3fa8740]
160568034000: system.ruby.cp_cntrl1.sequencer: Cache miss at [0x138bfb0, line 0x138bf80]
160568035000: system.ruby.cp_cntrl0.sequencer: Cache miss at [0x3fa8740, line 0x3fa8740]
160568036000: system.ruby.cp_cntrl1.sequencer: Cache miss at [0x138bfb8, line 0x138bf80]
160568037000: system.ruby.cp_cntrl0.sequencer: Cache miss at [0x38a68, line 0x38a40]
160568038000: system.ruby.cp_cntrl1.sequencer: Cache miss at [0x138bfb8, line 0x138bf80]
160568039000: system.ruby.cp_cntrl0.sequencer: Cache miss at [0xfaa3f0, line 0xfaa3c0]
160568040000: system.ruby.cp_cntrl1.sequencer: Cache miss at [0x138bfc0, line 0x138bfc0]
160568041000: system.ruby.cp_cntrl0.sequencer: Cache miss at [0xfaa3f0, line 0xfaa3c0]
160568042000: system.ruby.cp_cntrl1.sequencer: Cache miss at [0x138bfc0, line 0x138bfc0]
160568043000: system.ruby.cp_cntrl0.sequencer: Cache miss at [0xfaa3f8, line 0xfaa3c0]
160568045000: system.ruby.cp_cntrl0.sequencer: Cache miss at [0xf90c20, line 0xf90c00]
160568047000: system.ruby.cp_cntrl0.sequencer: Cache miss at [0xc62610, line 0xc62600]
160568049000: system.ruby.cp_cntrl0.sequencer: Cache miss at [0x13a7710, line 0x13a7700]
160568051000: system.ruby.cp_cntrl0.sequencer: Cache miss at [0x13a7710, line 0x13a7700]
160568053000: system.ruby.cp_cntrl0.sequencer: Cache miss at [0x13a7718, line 0x13a7700]
160568055000: system.ruby.cp_cntrl0.sequencer: Cache miss at [0x13a7718, line 0x13a7700]
160568057000: system.ruby.cp_cntrl0.sequencer: Cache miss at [0x13a7718, line 0x13a7700]
160568059000: system.ruby.cp_cntrl0.sequencer: Cache miss at [0x13a7720, line 0x13a7700]
160568061000: system.ruby.cp_cntrl0.sequencer: Cache miss at [0x13a7720, line 0x13a7700]
160568063000: system.ruby.cp_cntrl0.sequencer: Cache miss at [0x13a7720, line 0x13a7700]
160568065000: system.ruby.cp_cntrl0.sequencer: Cache miss at [0x38a68, line 0x38a40]
160568066205: system.ruby.sqc_cntrl0.sequencer: Cache hit at [0x401d000, line 0x401d000]
160568067000: system.ruby.cp_cntrl0.sequencer: Cache miss at [0x3fa8740, line 0x3fa8740]
160568069000: system.ruby.cp_cntrl0.sequencer: Cache miss at [0x10df8a8, line 0x10df880]
160568071000: system.ruby.cp_cntrl0.sequencer: Cache miss at [0x3fa8748, line 0x3fa8740]
160568073000: system.ruby.cp_cntrl0.sequencer: Cache miss at [0x3fa8748, line 0x3fa8740]
160568075000: system.ruby.cp_cntrl0.sequencer: Cache miss at [0x3fa8740, line 0x3fa8740]
160568077000: system.ruby.cp_cntrl0.sequencer: Cache miss at [0x38a68, line 0x38a40]
160568079000: system.ruby.cp_cntrl0.sequencer: Cache miss at [0xfaa3f0, line 0xfaa3c0]
160568081000: system.ruby.cp_cntrl0.sequencer: Cache miss at [0xfaa3f0, line 0xfaa3c0]
160568083000: system.ruby.cp_cntrl0.sequencer: Cache miss at [0xfaa3f8, line 0xfaa3c0]
160568085000: system.ruby.cp_cntrl0.sequencer: Cache miss at [0xf90c20, line 0xf90c00]
160568087000: system.ruby.cp_cntrl0.sequencer: Cache miss at [0xc62610, line 0xc62600]
160568089000: system.ruby.cp_cntrl0.sequencer: Cache miss at [0x13a7710, line 0x13a7700]
160568091000: system.ruby.cp_cntrl0.sequencer: Cache miss at [0x13a7710, line 0x13a7700]
160568093000: system.ruby.cp_cntrl0.sequencer: Cache miss at [0x13a7718, line 0x13a7700]
160568095000: system.ruby.cp_cntrl0.sequencer: Cache miss at [0x13a7718, line 0x13a7700]
160568097000: system.ruby.cp_cntrl0.sequencer: Cache miss at [0x13a7718, line 0x13a7700]
160568099000: system.ruby.cp_cntrl0.sequencer: Cache miss at [0x13a7720, line 0x13a7700]
160568101000: system.ruby.cp_cntrl0.sequencer: Cache miss at [0x13a7720, line 0x13a7700]
160568103000: system.ruby.cp_cntrl0.sequencer: Cache miss at [0x13a7720, line 0x13a7700]
160568105000: system.ruby.cp_cntrl0.sequencer: Cache miss at [0x38a68, line 0x38a40]
160568107000: system.ruby.cp_cntrl0.sequencer: Cache miss at [0x3fa8740, line 0x3fa8740]
160568109000: system.ruby.cp_cntrl0.sequencer: Cache miss at [0x10df8a8, line 0x10df880]
160568111000: system.ruby.cp_cntrl0.sequencer: Cache miss at [0x3fa8748, line 0x3fa8740]
160568113000: system.ruby.cp_cntrl0.sequencer: Cache miss at [0x3fa8748, line 0x3fa8740]
160568115000: system.ruby.cp_cntrl0.sequencer: Cache miss at [0x3fa8740, line 0x3fa8740]
160568117000: system.ruby.cp_cntrl0.sequencer: Cache miss at [0x38a68, line 0x38a40]
160568119000: system.ruby.cp_cntrl0.sequencer: Cache miss at [0xfaa3f0, line 0xfaa3c0]
160568121000: system.ruby.cp_cntrl0.sequencer: Cache miss at [0xfaa3f0, line 0xfaa3c0]
160568123000: system.ruby.cp_cntrl0.sequencer: Cache miss at [0xfaa3f8, line 0xfaa3c0]
160568125000: system.ruby.cp_cntrl0.sequencer: Cache miss at [0xf90c20, line 0xf90c00]
160568127000: system.ruby.cp_cntrl0.sequencer: Cache miss at [0xc62610, line 0xc62600]
160568129000: system.ruby.cp_cntrl0.sequencer: Cache miss at [0x13a7710, line 0x13a7700]
160568131000: system.ruby.cp_cntrl0.sequencer: Cache miss at [0x13a7710, line 0x13a7700]
160568133000: system.ruby.cp_cntrl0.sequencer: Cache miss at [0x13a7718, line 0x13a7700]
160568135000: system.ruby.cp_cntrl0.sequencer: Cache miss at [0x13a7718, line 0x13a7700]
160568137000: system.ruby.cp_cntrl0.sequencer: Cache miss at [0x13a7718, line 0x13a7700]
160568139000: system.ruby.cp_cntrl0.sequencer: Cache miss at [0x13a7720, line 0x13a7700]
160568141000: system.ruby.cp_cntrl0.sequencer: Cache miss at [0x13a7720, line 0x13a7700]
160568143000: system.ruby.cp_cntrl0.sequencer: Cache miss at [0x13a7720, line 0x13a7700]
160568145000: system.ruby.cp_cntrl0.sequencer: Cache miss at [0x38a68, line 0x38a40]
160568147000: system.ruby.cp_cntrl0.sequencer: Cache miss at [0x3fa8740, line 0x3fa8740]
160568149000: system.ruby.cp_cntrl0.sequencer: Cache miss at [0x10df8a8, line 0x10df880]
160568151000: system.ruby.cp_cntrl0.sequencer: Cache miss at [0x3fa8748, line 0x3fa8740]
160568153000: system.ruby.cp_cntrl0.sequencer: Cache miss at [0x3fa8748, line 0x3fa8740]
160568155000: system.ruby.cp_cntrl0.sequencer: Cache miss at [0x3fa8740, line 0x3fa8740]
160568157000: system.ruby.cp_cntrl0.sequencer: Cache miss at [0x38a68, line 0x38a40]
160568159000: system.ruby.cp_cntrl0.sequencer: Cache miss at [0xfaa3f0, line 0xfaa3c0]
160568161000: system.ruby.cp_cntrl0.sequencer: Cache miss at [0xfaa3f0, line 0xfaa3c0]
160568163000: system.ruby.cp_cntrl0.sequencer: Cache miss at [0xfaa3f8, line 0xfaa3c0]
160568165000: system.ruby.cp_cntrl0.sequencer: Cache miss at [0xf90c20, line 0xf90c00]
160568167000: system.ruby.cp_cntrl0.sequencer: Cache miss at [0xc62610, line 0xc62600]
160568169000: system.ruby.cp_cntrl0.sequencer: Cache miss at [0x13a7710, line 0x13a7700]
160568171000: system.ruby.cp_cntrl0.sequencer: Cache miss at [0x13a7710, line 0x13a7700]
160568173000: system.ruby.cp_cntrl0.sequencer: Cache miss at [0x13a7718, line 0x13a7700]
160568175000: system.ruby.cp_cntrl0.sequencer: Cache miss at [0x13a7718, line 0x13a7700]
160568177000: system.ruby.cp_cntrl0.sequencer: Cache miss at [0x13a7718, line 0x13a7700]
160568179000: system.ruby.cp_cntrl0.sequencer: Cache miss at [0x13a7720, line 0x13a7700]
160568181000: system.ruby.cp_cntrl0.sequencer: Cache miss at [0x13a7720, line 0x13a7700]
160568183000: system.ruby.cp_cntrl0.sequencer: Cache miss at [0x13a7720, line 0x13a7700]
160568185000: system.ruby.cp_cntrl0.sequencer: Cache miss at [0x38a68, line 0x38a40]
160568187000: system.ruby.cp_cntrl0.sequencer: Cache miss at [0x3fa8740, line 0x3fa8740]
160568189000: system.ruby.cp_cntrl0.sequencer: Cache miss at [0x10df8a8, line 0x10df880]
160568191000: system.ruby.cp_cntrl0.sequencer: Cache miss at [0x3fa8748, line 0x3fa8740]
160568193000: system.ruby.cp_cntrl0.sequencer: Cache miss at [0x3fa8748, line 0x3fa8740]
160568195000: system.ruby.cp_cntrl0.sequencer: Cache miss at [0x3fa8740, line 0x3fa8740]
160568197000: system.ruby.cp_cntrl0.sequencer: Cache miss at [0x38a68, line 0x38a40]
160568199000: system.ruby.cp_cntrl0.sequencer: Cache miss at [0xfaa3f0, line 0xfaa3c0]
160568201000: system.ruby.cp_cntrl0.sequencer: Cache miss at [0xfaa3f0, line 0xfaa3c0]
160568203000: system.ruby.cp_cntrl0.sequencer: Cache miss at [0xfaa3f8, line 0xfaa3c0]
160568205000: system.ruby.cp_cntrl0.sequencer: Cache miss at [0xf90c20, line 0xf90c00]
160568207000: system.ruby.cp_cntrl0.sequencer: Cache miss at [0xc62610, line 0xc62600]
160568209000: system.ruby.cp_cntrl0.sequencer: Cache miss at [0x13a7710, line 0x13a7700]
160568211000: system.ruby.cp_cntrl0.sequencer: Cache miss at [0x13a7710, line 0x13a7700]
160568213000: system.ruby.cp_cntrl0.sequencer: Cache miss at [0x13a7718, line 0x13a7700]
160568215000: system.ruby.cp_cntrl0.sequencer: Cache miss at [0x13a7718, line 0x13a7700]
160568217000: system.ruby.cp_cntrl0.sequencer: Cache miss at [0x13a7718, line 0x13a7700]
160568219000: system.ruby.cp_cntrl0.sequencer: Cache miss at [0x13a7720, line 0x13a7700]
160568221000: system.ruby.cp_cntrl0.sequencer: Cache miss at [0x13a7720, line 0x13a7700]
160568223000: system.ruby.cp_cntrl0.sequencer: Cache miss at [0x13a7720, line 0x13a7700]
160568225000: system.ruby.cp_cntrl0.sequencer: Cache miss at [0x38a68, line 0x38a40]
160568227000: system.ruby.cp_cntrl0.sequencer: Cache miss at [0x3fa8740, line 0x3fa8740]
160568229000: system.ruby.cp_cntrl0.sequencer: Cache miss at [0x10df8a8, line 0x10df880]
160568231000: system.ruby.cp_cntrl0.sequencer: Cache miss at [0x3fa8748, line 0x3fa8740]
160568233000: system.ruby.cp_cntrl0.sequencer: Cache miss at [0x3fa8748, line 0x3fa8740]
160568235000: system.ruby.cp_cntrl0.sequencer: Cache miss at [0x3fa8740, line 0x3fa8740]
160568237000: system.ruby.cp_cntrl0.sequencer: Cache miss at [0x38a68, line 0x38a40]
160568239000: system.ruby.cp_cntrl0.sequencer: Cache miss at [0xfaa3f0, line 0xfaa3c0]
160568241000: system.ruby.cp_cntrl0.sequencer: Cache miss at [0xfaa3f0, line 0xfaa3c0]
160568243000: system.ruby.cp_cntrl0.sequencer: Cache miss at [0xfaa3f8, line 0xfaa3c0]
160568245000: system.ruby.cp_cntrl0.sequencer: Cache miss at [0xf90c20, line 0xf90c00]
160568247000: system.ruby.cp_cntrl0.sequencer: Cache miss at [0xc62610, line 0xc62600]
160568249000: system.ruby.cp_cntrl0.sequencer: Cache miss at [0x13a7710, line 0x13a7700]
160568251000: system.ruby.cp_cntrl0.sequencer: Cache miss at [0x13a7710, line 0x13a7700]
160568253000: system.ruby.cp_cntrl0.sequencer: Cache miss at [0x13a7718, line 0x13a7700]
160568255000: system.ruby.cp_cntrl0.sequencer: Cache miss at [0x13a7718, line 0x13a7700]
160568257000: system.ruby.cp_cntrl0.sequencer: Cache miss at [0x13a7718, line 0x13a7700]
160568259000: system.ruby.cp_cntrl0.sequencer: Cache miss at [0x13a7720, line 0x13a7700]
160568261000: system.ruby.cp_cntrl0.sequencer: Cache miss at [0x13a7720, line 0x13a7700]
160568263000: system.ruby.cp_cntrl0.sequencer: Cache miss at [0x13a7720, line 0x13a7700]
160568265000: system.ruby.cp_cntrl0.sequencer: Cache miss at [0x38a68, line 0x38a40]
160568267000: system.ruby.cp_cntrl0.sequencer: Cache miss at [0x3fa8740, line 0x3fa8740]
160568269000: system.ruby.cp_cntrl0.sequencer: Cache miss at [0x10df8a8, line 0x10df880]
160568271000: system.ruby.cp_cntrl0.sequencer: Cache miss at [0x3fa8748, line 0x3fa8740]
160568273000: system.ruby.cp_cntrl0.sequencer: Cache miss at [0x3fa8748, line 0x3fa8740]
160568275000: system.ruby.cp_cntrl0.sequencer: Cache miss at [0x3fa8740, line 0x3fa8740]
160568277000: system.ruby.cp_cntrl0.sequencer: Cache miss at [0x38a68, line 0x38a40]
160568279000: system.ruby.cp_cntrl0.sequencer: Cache miss at [0xfaa3f0, line 0xfaa3c0]
160568281000: system.ruby.cp_cntrl0.sequencer: Cache miss at [0xfaa3f0, line 0xfaa3c0]
160568283000: system.ruby.cp_cntrl0.sequencer: Cache miss at [0xfaa3f8, line 0xfaa3c0]
160568285000: system.ruby.cp_cntrl0.sequencer: Cache miss at [0xf90c20, line 0xf90c00]
160568287000: system.ruby.cp_cntrl0.sequencer: Cache miss at [0xc62610, line 0xc62600]
160568289000: system.ruby.cp_cntrl0.sequencer: Cache miss at [0x13a7710, line 0x13a7700]
160568291000: system.ruby.cp_cntrl0.sequencer: Cache miss at [0x13a7710, line 0x13a7700]
160568293000: system.ruby.cp_cntrl0.sequencer: Cache miss at [0x13a7718, line 0x13a7700]
160568295000: system.ruby.cp_cntrl0.sequencer: Cache miss at [0x13a7718, line 0x13a7700]
160568297000: system.ruby.cp_cntrl0.sequencer: Cache miss at [0x13a7718, line 0x13a7700]
160568299000: system.ruby.cp_cntrl0.sequencer: Cache miss at [0x13a7720, line 0x13a7700]
160568301000: system.ruby.cp_cntrl0.sequencer: Cache miss at [0x13a7720, line 0x13a7700]
160568303000: system.ruby.cp_cntrl0.sequencer: Cache miss at [0x13a7720, line 0x13a7700]
160568305000: system.ruby.cp_cntrl0.sequencer: Cache miss at [0x38a68, line 0x38a40]
160568307000: system.ruby.cp_cntrl0.sequencer: Cache miss at [0x3fa8740, line 0x3fa8740]
160568309000: system.ruby.cp_cntrl0.sequencer: Cache miss at [0x10df8a8, line 0x10df880]
160568311000: system.ruby.cp_cntrl0.sequencer: Cache miss at [0x3fa8748, line 0x3fa8740]
160568313000: system.ruby.cp_cntrl0.sequencer: Cache miss at [0x3fa8748, line 0x3fa8740]
160568315000: system.ruby.cp_cntrl0.sequencer: Cache miss at [0x3fa8740, line 0x3fa8740]
160568317000: system.ruby.cp_cntrl0.sequencer: Cache miss at [0x38a68, line 0x38a40]
160568319000: system.ruby.cp_cntrl0.sequencer: Cache miss at [0xfaa3f0, line 0xfaa3c0]
160568321000: system.ruby.cp_cntrl0.sequencer: Cache miss at [0xfaa3f0, line 0xfaa3c0]
160568323000: system.ruby.cp_cntrl0.sequencer: Cache miss at [0xfaa3f8, line 0xfaa3c0]
160568325000: system.ruby.cp_cntrl0.sequencer: Cache miss at [0xf90c20, line 0xf90c00]
160568327000: system.ruby.cp_cntrl0.sequencer: Cache miss at [0xc62610, line 0xc62600]
160568329000: system.ruby.cp_cntrl0.sequencer: Cache miss at [0x13a7710, line 0x13a7700]
160568331000: system.ruby.cp_cntrl0.sequencer: Cache miss at [0x13a7710, line 0x13a7700]
160568333000: system.ruby.cp_cntrl0.sequencer: Cache miss at [0x13a7718, line 0x13a7700]
160568335000: system.ruby.cp_cntrl0.sequencer: Cache miss at [0x13a7718, line 0x13a7700]
160568337000: system.ruby.cp_cntrl0.sequencer: Cache miss at [0x13a7718, line 0x13a7700]
160568339000: system.ruby.cp_cntrl0.sequencer: Cache miss at [0x13a7720, line 0x13a7700]
160568341000: system.ruby.cp_cntrl0.sequencer: Cache miss at [0x13a7720, line 0x13a7700]
160568343000: system.ruby.cp_cntrl0.sequencer: Cache miss at [0x13a7720, line 0x13a7700]
160568345000: system.ruby.cp_cntrl0.sequencer: Cache miss at [0x38a68, line 0x38a40]
160568347000: system.ruby.cp_cntrl0.sequencer: Cache miss at [0x3fa8740, line 0x3fa8740]
160568349000: system.ruby.cp_cntrl0.sequencer: Cache miss at [0x10df8a8, line 0x10df880]
160568351000: system.ruby.cp_cntrl0.sequencer: Cache miss at [0x3fa8748, line 0x3fa8740]
160568353000: system.ruby.cp_cntrl0.sequencer: Cache miss at [0x3fa8748, line 0x3fa8740]
160568355000: system.ruby.cp_cntrl0.sequencer: Cache miss at [0x3fa8740, line 0x3fa8740]
160568357000: system.ruby.cp_cntrl0.sequencer: Cache miss at [0x38a68, line 0x38a40]
160568359000: system.ruby.cp_cntrl0.sequencer: Cache miss at [0xfaa3f0, line 0xfaa3c0]
160568361000: system.ruby.cp_cntrl1.sequencer: Cache hit at [0x10df9e0, line 0x10df9c0]
160568361000: system.ruby.cp_cntrl0.sequencer: Cache miss at [0xfaa3f0, line 0xfaa3c0]
160568363000: system.ruby.cp_cntrl0.sequencer: Cache miss at [0xfaa3f8, line 0xfaa3c0]
160568363000: system.ruby.cp_cntrl1.sequencer: Cache miss at [0x138bfc0, line 0x138bfc0]
160568365000: system.ruby.cp_cntrl1.sequencer: Cache miss at [0x138bfc8, line 0x138bfc0]
160568365000: system.ruby.cp_cntrl0.sequencer: Cache miss at [0xf90c20, line 0xf90c00]
160568367000: system.ruby.cp_cntrl0.sequencer: Cache miss at [0xc62610, line 0xc62600]
160568367000: system.ruby.cp_cntrl1.sequencer: Cache miss at [0x138bfc8, line 0x138bfc0]
160568369000: system.ruby.cp_cntrl0.sequencer: Cache miss at [0x13a7710, line 0x13a7700]
160568371000: system.ruby.cp_cntrl0.sequencer: Cache miss at [0x13a7710, line 0x13a7700]
160568373000: system.ruby.cp_cntrl0.sequencer: Cache miss at [0x13a7718, line 0x13a7700]
160568375000: system.ruby.cp_cntrl0.sequencer: Cache miss at [0x13a7718, line 0x13a7700]
160568377000: system.ruby.cp_cntrl0.sequencer: Cache miss at [0x13a7718, line 0x13a7700]
160568379000: system.ruby.cp_cntrl0.sequencer: Cache miss at [0x13a7720, line 0x13a7700]
160568381000: system.ruby.cp_cntrl0.sequencer: Cache miss at [0x13a7720, line 0x13a7700]
160568383000: system.ruby.cp_cntrl0.sequencer: Cache miss at [0x13a7720, line 0x13a7700]
160568385000: system.ruby.cp_cntrl0.sequencer: Cache miss at [0x38a68, line 0x38a40]
160568387000: system.ruby.cp_cntrl0.sequencer: Cache miss at [0x3fa8740, line 0x3fa8740]
160568389000: system.ruby.cp_cntrl0.sequencer: Cache miss at [0x10df8a8, line 0x10df880]
160568391000: system.ruby.cp_cntrl0.sequencer: Cache miss at [0x3fa8748, line 0x3fa8740]
160568393000: system.ruby.cp_cntrl0.sequencer: Cache miss at [0x3fa8748, line 0x3fa8740]
160568395000: system.ruby.cp_cntrl0.sequencer: Cache miss at [0x3fa8740, line 0x3fa8740]
160568397000: system.ruby.cp_cntrl0.sequencer: Cache miss at [0x38a68, line 0x38a40]
160568399000: system.ruby.cp_cntrl0.sequencer: Cache miss at [0xfaa3f0, line 0xfaa3c0]
160568401000: system.ruby.cp_cntrl0.sequencer: Cache miss at [0xfaa3f0, line 0xfaa3c0]
160568403000: system.ruby.cp_cntrl0.sequencer: Cache miss at [0xfaa3f8, line 0xfaa3c0]
160568405000: system.ruby.cp_cntrl0.sequencer: Cache miss at [0xf90c20, line 0xf90c00]
160568407000: system.ruby.cp_cntrl0.sequencer: Cache miss at [0xc62610, line 0xc62600]
160568409000: system.ruby.cp_cntrl0.sequencer: Cache miss at [0x13a7710, line 0x13a7700]
160568411000: system.ruby.cp_cntrl0.sequencer: Cache miss at [0x13a7710, line 0x13a7700]
160568413000: system.ruby.cp_cntrl0.sequencer: Cache miss at [0x13a7718, line 0x13a7700]
160568415000: system.ruby.cp_cntrl0.sequencer: Cache miss at [0x13a7718, line 0x13a7700]
160568417000: system.ruby.cp_cntrl0.sequencer: Cache miss at [0x13a7718, line 0x13a7700]
160568419000: system.ruby.cp_cntrl0.sequencer: Cache miss at [0x13a7720, line 0x13a7700]
160568421000: system.ruby.cp_cntrl0.sequencer: Cache miss at [0x13a7720, line 0x13a7700]
160568423000: system.ruby.cp_cntrl0.sequencer: Cache miss at [0x13a7720, line 0x13a7700]
160568425000: system.ruby.cp_cntrl0.sequencer: Cache miss at [0x38a68, line 0x38a40]
160568427000: system.ruby.cp_cntrl0.sequencer: Cache miss at [0x3fa8740, line 0x3fa8740]
160568429000: system.ruby.cp_cntrl0.sequencer: Cache miss at [0x10df8a8, line 0x10df880]
160568431000: system.ruby.cp_cntrl0.sequencer: Cache miss at [0x3fa8748, line 0x3fa8740]
160568433000: system.ruby.cp_cntrl0.sequencer: Cache miss at [0x3fa8748, line 0x3fa8740]
160568435000: system.ruby.cp_cntrl0.sequencer: Cache miss at [0x3fa8740, line 0x3fa8740]
160568437000: system.ruby.cp_cntrl0.sequencer: Cache miss at [0x38a68, line 0x38a40]
160568439000: system.ruby.cp_cntrl0.sequencer: Cache miss at [0xfaa3f0, line 0xfaa3c0]
160568441000: system.ruby.cp_cntrl0.sequencer: Cache miss at [0xfaa3f0, line 0xfaa3c0]
160568443000: system.ruby.cp_cntrl0.sequencer: Cache miss at [0xfaa3f8, line 0xfaa3c0]
160568445000: system.ruby.cp_cntrl0.sequencer: Cache miss at [0xf90c20, line 0xf90c00]
160568447000: system.ruby.cp_cntrl0.sequencer: Cache miss at [0xc62610, line 0xc62600]
160568449000: system.ruby.cp_cntrl0.sequencer: Cache miss at [0x13a7710, line 0x13a7700]
160568451000: system.ruby.cp_cntrl0.sequencer: Cache miss at [0x13a7710, line 0x13a7700]
160568453000: system.ruby.cp_cntrl0.sequencer: Cache miss at [0x13a7718, line 0x13a7700]
160568455000: system.ruby.cp_cntrl0.sequencer: Cache miss at [0x13a7718, line 0x13a7700]
160568457000: system.ruby.cp_cntrl0.sequencer: Cache miss at [0x13a7718, line 0x13a7700]
160568459000: system.ruby.cp_cntrl0.sequencer: Cache miss at [0x13a7720, line 0x13a7700]
160568461000: system.ruby.cp_cntrl0.sequencer: Cache miss at [0x13a7720, line 0x13a7700]
160568463000: system.ruby.cp_cntrl0.sequencer: Cache miss at [0x13a7720, line 0x13a7700]
160568465000: system.ruby.cp_cntrl0.sequencer: Cache miss at [0x38a68, line 0x38a40]
160568467000: system.ruby.cp_cntrl0.sequencer: Cache miss at [0x3fa8740, line 0x3fa8740]
160568469000: system.ruby.cp_cntrl0.sequencer: Cache miss at [0x10df8a8, line 0x10df880]
160568471000: system.ruby.cp_cntrl0.sequencer: Cache miss at [0x3fa8748, line 0x3fa8740]
160568473000: system.ruby.cp_cntrl0.sequencer: Cache miss at [0x3fa8748, line 0x3fa8740]
160568475000: system.ruby.cp_cntrl0.sequencer: Cache miss at [0x3fa8740, line 0x3fa8740]
160568477000: system.ruby.cp_cntrl0.sequencer: Cache miss at [0x38a68, line 0x38a40]
160568479000: system.ruby.cp_cntrl0.sequencer: Cache miss at [0xfaa3f0, line 0xfaa3c0]
160568481000: system.ruby.cp_cntrl0.sequencer: Cache miss at [0xfaa3f0, line 0xfaa3c0]
160568483000: system.ruby.cp_cntrl0.sequencer: Cache miss at [0xfaa3f8, line 0xfaa3c0]
160568485000: system.ruby.cp_cntrl0.sequencer: Cache miss at [0xf90c20, line 0xf90c00]
160568487000: system.ruby.cp_cntrl0.sequencer: Cache miss at [0xc62610, line 0xc62600]
160568489000: system.ruby.cp_cntrl0.sequencer: Cache miss at [0x13a7710, line 0x13a7700]
160568491000: system.ruby.cp_cntrl0.sequencer: Cache miss at [0x13a7710, line 0x13a7700]
160568493000: system.ruby.cp_cntrl0.sequencer: Cache miss at [0x13a7718, line 0x13a7700]
160568495000: system.ruby.cp_cntrl0.sequencer: Cache miss at [0x13a7718, line 0x13a7700]
160568497000: system.ruby.cp_cntrl0.sequencer: Cache miss at [0x13a7718, line 0x13a7700]
160568499000: system.ruby.cp_cntrl0.sequencer: Cache miss at [0x13a7720, line 0x13a7700]
160568501000: system.ruby.cp_cntrl0.sequencer: Cache miss at [0x13a7720, line 0x13a7700]
160568503000: system.ruby.cp_cntrl0.sequencer: Cache miss at [0x13a7720, line 0x13a7700]
160568505000: system.ruby.cp_cntrl0.sequencer: Cache miss at [0x38a68, line 0x38a40]
160568507000: system.ruby.cp_cntrl0.sequencer: Cache miss at [0x3fa8740, line 0x3fa8740]
160568509000: system.ruby.cp_cntrl0.sequencer: Cache miss at [0x10df8a8, line 0x10df880]
160568511000: system.ruby.cp_cntrl0.sequencer: Cache miss at [0x3fa8748, line 0x3fa8740]
160568513000: system.ruby.cp_cntrl0.sequencer: Cache miss at [0x3fa8748, line 0x3fa8740]
160568515000: system.ruby.cp_cntrl0.sequencer: Cache miss at [0x3fa8740, line 0x3fa8740]
160568517000: system.ruby.cp_cntrl0.sequencer: Cache miss at [0x38a68, line 0x38a40]
160568519000: system.ruby.cp_cntrl0.sequencer: Cache miss at [0xfaa3f0, line 0xfaa3c0]
160568521000: system.ruby.cp_cntrl0.sequencer: Cache miss at [0xfaa3f0, line 0xfaa3c0]
160568523000: system.ruby.cp_cntrl0.sequencer: Cache miss at [0xfaa3f8, line 0xfaa3c0]
160568525000: system.ruby.cp_cntrl0.sequencer: Cache miss at [0xf90c20, line 0xf90c00]
160568527000: system.ruby.cp_cntrl0.sequencer: Cache miss at [0xc62610, line 0xc62600]
160568529000: system.ruby.cp_cntrl0.sequencer: Cache miss at [0x13a7710, line 0x13a7700]
160568531000: system.ruby.cp_cntrl0.sequencer: Cache miss at [0x13a7710, line 0x13a7700]
160568533000: system.ruby.cp_cntrl0.sequencer: Cache miss at [0x13a7718, line 0x13a7700]
160568535000: system.ruby.cp_cntrl0.sequencer: Cache miss at [0x13a7718, line 0x13a7700]
160568537000: system.ruby.cp_cntrl0.sequencer: Cache miss at [0x13a7718, line 0x13a7700]
160568539000: system.ruby.cp_cntrl0.sequencer: Cache miss at [0x13a7720, line 0x13a7700]
160568541000: system.ruby.cp_cntrl0.sequencer: Cache miss at [0x13a7720, line 0x13a7700]
160568543000: system.ruby.cp_cntrl0.sequencer: Cache miss at [0x13a7720, line 0x13a7700]
160568545000: system.ruby.cp_cntrl0.sequencer: Cache miss at [0x38a68, line 0x38a40]
160568547000: system.ruby.cp_cntrl0.sequencer: Cache miss at [0x3fa8740, line 0x3fa8740]
160568549000: system.ruby.cp_cntrl0.sequencer: Cache miss at [0x10df8a8, line 0x10df880]
160568551000: system.ruby.cp_cntrl0.sequencer: Cache miss at [0x3fa8748, line 0x3fa8740]
160568553000: system.ruby.cp_cntrl0.sequencer: Cache miss at [0x3fa8748, line 0x3fa8740]
160568555000: system.ruby.cp_cntrl0.sequencer: Cache miss at [0x3fa8740, line 0x3fa8740]
160568557000: system.ruby.cp_cntrl0.sequencer: Cache miss at [0x38a68, line 0x38a40]
160568559000: system.ruby.cp_cntrl0.sequencer: Cache miss at [0xfaa3f0, line 0xfaa3c0]
160568561000: system.ruby.cp_cntrl0.sequencer: Cache miss at [0xfaa3f0, line 0xfaa3c0]
160568563000: system.ruby.cp_cntrl0.sequencer: Cache miss at [0xfaa3f8, line 0xfaa3c0]
160568565000: system.ruby.cp_cntrl0.sequencer: Cache miss at [0xf90c20, line 0xf90c00]
160568567000: system.ruby.cp_cntrl0.sequencer: Cache miss at [0xc62610, line 0xc62600]
160568569000: system.ruby.cp_cntrl0.sequencer: Cache miss at [0x13a7710, line 0x13a7700]
160568571000: system.ruby.cp_cntrl0.sequencer: Cache miss at [0x13a7710, line 0x13a7700]
160568573000: system.ruby.cp_cntrl0.sequencer: Cache miss at [0x13a7718, line 0x13a7700]
160568575000: system.ruby.cp_cntrl0.sequencer: Cache miss at [0x13a7718, line 0x13a7700]
160568577000: system.ruby.cp_cntrl0.sequencer: Cache miss at [0x13a7718, line 0x13a7700]
160568579000: system.ruby.cp_cntrl0.sequencer: Cache miss at [0x13a7720, line 0x13a7700]
160568581000: system.ruby.cp_cntrl0.sequencer: Cache miss at [0x13a7720, line 0x13a7700]
160568583000: system.ruby.cp_cntrl0.sequencer: Cache miss at [0x13a7720, line 0x13a7700]
160568585000: system.ruby.cp_cntrl0.sequencer: Cache miss at [0x38a68, line 0x38a40]
160568587000: system.ruby.cp_cntrl0.sequencer: Cache miss at [0x3fa8740, line 0x3fa8740]
160568589000: system.ruby.cp_cntrl0.sequencer: Cache miss at [0x10df8a8, line 0x10df880]
160568591000: system.ruby.cp_cntrl0.sequencer: Cache miss at [0x3fa8748, line 0x3fa8740]
160568593000: system.ruby.cp_cntrl0.sequencer: Cache miss at [0x3fa8748, line 0x3fa8740]
160568595000: system.ruby.cp_cntrl0.sequencer: Cache miss at [0x3fa8740, line 0x3fa8740]
160568597000: system.ruby.cp_cntrl0.sequencer: Cache miss at [0x38a68, line 0x38a40]
160568599000: system.ruby.cp_cntrl0.sequencer: Cache miss at [0xfaa3f0, line 0xfaa3c0]
160568601000: system.ruby.cp_cntrl0.sequencer: Cache miss at [0xfaa3f0, line 0xfaa3c0]
160568603000: system.ruby.cp_cntrl0.sequencer: Cache miss at [0xfaa3f8, line 0xfaa3c0]
160568605000: system.ruby.cp_cntrl0.sequencer: Cache miss at [0xf90c20, line 0xf90c00]
160568607000: system.ruby.cp_cntrl0.sequencer: Cache miss at [0xc62610, line 0xc62600]
160568609000: system.ruby.cp_cntrl0.sequencer: Cache miss at [0x13a7710, line 0x13a7700]
160568611000: system.ruby.cp_cntrl0.sequencer: Cache miss at [0x13a7710, line 0x13a7700]
160568611215: system.ruby.sqc_cntrl0.sequencer: Cache hit at [0x401d040, line 0x401d040]
160568613000: system.ruby.cp_cntrl0.sequencer: Cache miss at [0x13a7718, line 0x13a7700]
160568615000: system.ruby.cp_cntrl0.sequencer: Cache miss at [0x13a7718, line 0x13a7700]
160568617000: system.ruby.cp_cntrl0.sequencer: Cache miss at [0x13a7718, line 0x13a7700]
160568619000: system.ruby.cp_cntrl0.sequencer: Cache miss at [0x13a7720, line 0x13a7700]
160568621000: system.ruby.cp_cntrl0.sequencer: Cache miss at [0x13a7720, line 0x13a7700]
160568623000: system.ruby.cp_cntrl0.sequencer: Cache miss at [0x13a7720, line 0x13a7700]
160568625000: system.ruby.cp_cntrl0.sequencer: Cache miss at [0x38a68, line 0x38a40]
160568627000: system.ruby.cp_cntrl0.sequencer: Cache miss at [0x3fa8740, line 0x3fa8740]
160568629000: system.ruby.cp_cntrl0.sequencer: Cache miss at [0x10df8a8, line 0x10df880]
160568631000: system.ruby.cp_cntrl0.sequencer: Cache miss at [0x3fa8748, line 0x3fa8740]
160568633000: system.ruby.cp_cntrl0.sequencer: Cache miss at [0x3fa8748, line 0x3fa8740]
160568635000: system.ruby.cp_cntrl0.sequencer: Cache miss at [0x3fa8740, line 0x3fa8740]
160568637000: system.ruby.cp_cntrl0.sequencer: Cache miss at [0x38a68, line 0x38a40]
160568639000: system.ruby.cp_cntrl0.sequencer: Cache miss at [0xfaa3f0, line 0xfaa3c0]
160568641000: system.ruby.cp_cntrl0.sequencer: Cache miss at [0xfaa3f0, line 0xfaa3c0]
160568643000: system.ruby.cp_cntrl0.sequencer: Cache miss at [0xfaa3f8, line 0xfaa3c0]
160568645000: system.ruby.cp_cntrl0.sequencer: Cache miss at [0xf90c20, line 0xf90c00]
160568647000: system.ruby.cp_cntrl0.sequencer: Cache miss at [0xc62610, line 0xc62600]
160568649000: system.ruby.cp_cntrl0.sequencer: Cache miss at [0x13a7710, line 0x13a7700]
160568651000: system.ruby.cp_cntrl0.sequencer: Cache miss at [0x13a7710, line 0x13a7700]
160568653000: system.ruby.cp_cntrl0.sequencer: Cache miss at [0x13a7718, line 0x13a7700]
160568655000: system.ruby.cp_cntrl0.sequencer: Cache miss at [0x13a7718, line 0x13a7700]
160568657000: system.ruby.cp_cntrl0.sequencer: Cache miss at [0x13a7718, line 0x13a7700]
160568659000: system.ruby.cp_cntrl0.sequencer: Cache miss at [0x13a7720, line 0x13a7700]
160568661000: system.ruby.cp_cntrl0.sequencer: Cache miss at [0x13a7720, line 0x13a7700]
160568663000: system.ruby.cp_cntrl0.sequencer: Cache miss at [0x13a7720, line 0x13a7700]
160568665000: system.ruby.cp_cntrl0.sequencer: Cache miss at [0x38a68, line 0x38a40]
160568667000: system.ruby.cp_cntrl0.sequencer: Cache miss at [0x3fa8740, line 0x3fa8740]
160568669000: system.ruby.cp_cntrl0.sequencer: Cache miss at [0x10df8a8, line 0x10df880]
160568671000: system.ruby.cp_cntrl0.sequencer: Cache miss at [0x3fa8748, line 0x3fa8740]
160568673000: system.ruby.cp_cntrl0.sequencer: Cache miss at [0x3fa8748, line 0x3fa8740]
160568675000: system.ruby.cp_cntrl0.sequencer: Cache miss at [0x3fa8740, line 0x3fa8740]
160568677000: system.ruby.cp_cntrl0.sequencer: Cache miss at [0x38a68, line 0x38a40]
160568679000: system.ruby.cp_cntrl0.sequencer: Cache miss at [0xfaa3f0, line 0xfaa3c0]
160568681000: system.ruby.cp_cntrl0.sequencer: Cache miss at [0xfaa3f0, line 0xfaa3c0]
160568683000: system.ruby.cp_cntrl0.sequencer: Cache miss at [0xfaa3f8, line 0xfaa3c0]
160568685000: system.ruby.cp_cntrl0.sequencer: Cache miss at [0xf90c20, line 0xf90c00]
160568686000: system.ruby.cp_cntrl1.sequencer: Cache hit at [0x10d5bc8, line 0x10d5bc0]
160568687000: system.ruby.cp_cntrl0.sequencer: Cache miss at [0xc62610, line 0xc62600]
160568688000: system.ruby.cp_cntrl1.sequencer: Cache miss at [0x10d5bc8, line 0x10d5bc0]
160568689000: system.ruby.cp_cntrl0.sequencer: Cache miss at [0x13a7710, line 0x13a7700]
160568690000: system.ruby.cp_cntrl1.sequencer: Cache miss at [0x138bfd0, line 0x138bfc0]
160568691000: system.ruby.cp_cntrl0.sequencer: Cache miss at [0x13a7710, line 0x13a7700]
160568692000: system.ruby.cp_cntrl1.sequencer: Cache miss at [0x138bfd0, line 0x138bfc0]
160568693000: system.ruby.cp_cntrl0.sequencer: Cache miss at [0x13a7718, line 0x13a7700]
160568694000: system.ruby.cp_cntrl1.sequencer: Cache miss at [0x138bfd0, line 0x138bfc0]
160568695000: system.ruby.cp_cntrl0.sequencer: Cache miss at [0x13a7718, line 0x13a7700]
160568696000: system.ruby.cp_cntrl1.sequencer: Cache miss at [0x138bfd8, line 0x138bfc0]
160568697000: system.ruby.cp_cntrl0.sequencer: Cache miss at [0x13a7718, line 0x13a7700]
160568698000: system.ruby.cp_cntrl1.sequencer: Cache miss at [0x138bfd8, line 0x138bfc0]
160568699000: system.ruby.cp_cntrl0.sequencer: Cache miss at [0x13a7720, line 0x13a7700]
160568700000: system.ruby.cp_cntrl1.sequencer: Cache miss at [0x139cc68, line 0x139cc40]
160568701000: system.ruby.cp_cntrl0.sequencer: Cache miss at [0x13a7720, line 0x13a7700]
160568702000: system.ruby.cp_cntrl1.sequencer: Cache miss at [0xf9b290, line 0xf9b280]
160568703000: system.ruby.cp_cntrl0.sequencer: Cache miss at [0x13a7720, line 0x13a7700]
160568704000: system.ruby.cp_cntrl1.sequencer: Cache miss at [0xf9b290, line 0xf9b280]
160568705000: system.ruby.cp_cntrl0.sequencer: Cache miss at [0x38a68, line 0x38a40]
160568706000: system.ruby.cp_cntrl1.sequencer: Cache miss at [0xf9b298, line 0xf9b280]
160568707000: system.ruby.cp_cntrl0.sequencer: Cache miss at [0x3fa8740, line 0x3fa8740]
160568708000: system.ruby.cp_cntrl1.sequencer: Cache miss at [0xfaa0d0, line 0xfaa0c0]
160568709000: system.ruby.cp_cntrl0.sequencer: Cache miss at [0x10df8a8, line 0x10df880]
160568710000: system.ruby.cp_cntrl1.sequencer: Cache miss at [0xfaa0d0, line 0xfaa0c0]
160568711000: system.ruby.cp_cntrl0.sequencer: Cache miss at [0x3fa8748, line 0x3fa8740]
160568712000: system.ruby.cp_cntrl1.sequencer: Cache miss at [0xfaa0d8, line 0xfaa0c0]
160568713000: system.ruby.cp_cntrl0.sequencer: Cache miss at [0x3fa8748, line 0x3fa8740]
160568715000: system.ruby.cp_cntrl0.sequencer: Cache miss at [0x3fa8740, line 0x3fa8740]
160568717000: system.ruby.cp_cntrl0.sequencer: Cache miss at [0x38a68, line 0x38a40]
160568719000: system.ruby.cp_cntrl0.sequencer: Cache miss at [0xfaa3f0, line 0xfaa3c0]
160568721000: system.ruby.cp_cntrl0.sequencer: Cache miss at [0xfaa3f0, line 0xfaa3c0]
160568723000: system.ruby.cp_cntrl0.sequencer: Cache miss at [0xfaa3f8, line 0xfaa3c0]
160568725000: system.ruby.cp_cntrl0.sequencer: Cache miss at [0xf90c20, line 0xf90c00]
160568727000: system.ruby.cp_cntrl0.sequencer: Cache miss at [0xc62610, line 0xc62600]
160568729000: system.ruby.cp_cntrl0.sequencer: Cache miss at [0x13a7710, line 0x13a7700]
160568731000: system.ruby.cp_cntrl0.sequencer: Cache miss at [0x13a7710, line 0x13a7700]
160568732000: system.ruby.cp_cntrl1.sequencer: Cache miss at [0xfa80a0, line 0xfa8080]
160568733000: system.ruby.cp_cntrl0.sequencer: Cache miss at [0x13a7718, line 0x13a7700]
160568734000: system.ruby.cp_cntrl1.sequencer: Cache miss at [0x4aea0, line 0x4ae80]
160568735000: system.ruby.cp_cntrl0.sequencer: Cache miss at [0x13a7718, line 0x13a7700]
160568736000: system.ruby.cp_cntrl1.sequencer: Cache miss at [0xc906d0, line 0xc906c0]
160568737000: system.ruby.cp_cntrl0.sequencer: Cache miss at [0x13a7718, line 0x13a7700]
160568738000: system.ruby.cp_cntrl1.sequencer: Cache miss at [0xc906d0, line 0xc906c0]
160568739000: system.ruby.cp_cntrl0.sequencer: Cache miss at [0x13a7720, line 0x13a7700]
160568740000: system.ruby.cp_cntrl1.sequencer: Cache miss at [0xc906d8, line 0xc906c0]
160568741000: system.ruby.cp_cntrl0.sequencer: Cache miss at [0x13a7720, line 0x13a7700]
160568742000: system.ruby.cp_cntrl1.sequencer: Cache miss at [0x53ef8, line 0x53ec0]
160568743000: system.ruby.cp_cntrl0.sequencer: Cache miss at [0x13a7720, line 0x13a7700]
160568744000: system.ruby.cp_cntrl1.sequencer: Cache miss at [0xc906d8, line 0xc906c0]
160568745000: system.ruby.cp_cntrl0.sequencer: Cache miss at [0x38a68, line 0x38a40]
160568746000: system.ruby.cp_cntrl1.sequencer: Cache miss at [0xc906e0, line 0xc906c0]
160568747000: system.ruby.cp_cntrl0.sequencer: Cache miss at [0x3fa8740, line 0x3fa8740]
160568748000: system.ruby.cp_cntrl1.sequencer: Cache miss at [0xc84e48, line 0xc84e40]
160568749000: system.ruby.cp_cntrl0.sequencer: Cache miss at [0x10df8a8, line 0x10df880]
160568750000: system.ruby.cp_cntrl1.sequencer: Cache miss at [0xc906e0, line 0xc906c0]
160568751000: system.ruby.cp_cntrl0.sequencer: Cache miss at [0x3fa8748, line 0x3fa8740]
160568752000: system.ruby.cp_cntrl1.sequencer: Cache miss at [0xc906e0, line 0xc906c0]
160568753000: system.ruby.cp_cntrl0.sequencer: Cache miss at [0x3fa8748, line 0x3fa8740]
160568754000: system.ruby.cp_cntrl1.sequencer: Cache miss at [0xc906e8, line 0xc906c0]
160568755000: system.ruby.cp_cntrl0.sequencer: Cache miss at [0x3fa8740, line 0x3fa8740]
160568756000: system.ruby.cp_cntrl1.sequencer: Cache miss at [0xc906e8, line 0xc906c0]
160568757000: system.ruby.cp_cntrl0.sequencer: Cache miss at [0x38a68, line 0x38a40]
160568758000: system.ruby.cp_cntrl1.sequencer: Cache miss at [0xc906e8, line 0xc906c0]
160568759000: system.ruby.cp_cntrl0.sequencer: Cache miss at [0xfaa3f0, line 0xfaa3c0]
160568760000: system.ruby.cp_cntrl1.sequencer: Cache miss at [0xc906f0, line 0xc906c0]
160568761000: system.ruby.cp_cntrl0.sequencer: Cache miss at [0xfaa3f0, line 0xfaa3c0]
160568763000: system.ruby.cp_cntrl0.sequencer: Cache miss at [0xfaa3f8, line 0xfaa3c0]
160568765000: system.ruby.cp_cntrl0.sequencer: Cache miss at [0xf90c20, line 0xf90c00]
160568767000: system.ruby.cp_cntrl0.sequencer: Cache miss at [0xc62610, line 0xc62600]
160568769000: system.ruby.cp_cntrl0.sequencer: Cache miss at [0x13a7710, line 0x13a7700]
160568771000: system.ruby.cp_cntrl0.sequencer: Cache miss at [0x13a7710, line 0x13a7700]
160568773000: system.ruby.cp_cntrl0.sequencer: Cache miss at [0x13a7718, line 0x13a7700]
160568775000: system.ruby.cp_cntrl0.sequencer: Cache miss at [0x13a7718, line 0x13a7700]
160568777000: system.ruby.cp_cntrl0.sequencer: Cache miss at [0x13a7718, line 0x13a7700]
160568779000: system.ruby.cp_cntrl0.sequencer: Cache miss at [0x13a7720, line 0x13a7700]
160568781000: system.ruby.cp_cntrl0.sequencer: Cache miss at [0x13a7720, line 0x13a7700]
160568783000: system.ruby.cp_cntrl0.sequencer: Cache miss at [0x13a7720, line 0x13a7700]
160568785000: system.ruby.cp_cntrl0.sequencer: Cache miss at [0x38a68, line 0x38a40]
160568787000: system.ruby.cp_cntrl0.sequencer: Cache miss at [0x3fa8740, line 0x3fa8740]
160568789000: system.ruby.cp_cntrl0.sequencer: Cache miss at [0x10df8a8, line 0x10df880]
160568791000: system.ruby.cp_cntrl0.sequencer: Cache miss at [0x3fa8748, line 0x3fa8740]
160568793000: system.ruby.cp_cntrl0.sequencer: Cache miss at [0x3fa8748, line 0x3fa8740]
160568795000: system.ruby.cp_cntrl0.sequencer: Cache miss at [0x3fa8740, line 0x3fa8740]
160568797000: system.ruby.cp_cntrl0.sequencer: Cache miss at [0x38a68, line 0x38a40]
160568799000: system.ruby.cp_cntrl0.sequencer: Cache miss at [0xfaa3f0, line 0xfaa3c0]
160568801000: system.ruby.cp_cntrl0.sequencer: Cache miss at [0xfaa3f0, line 0xfaa3c0]
160568803000: system.ruby.cp_cntrl0.sequencer: Cache miss at [0xfaa3f8, line 0xfaa3c0]
160568805000: system.ruby.cp_cntrl0.sequencer: Cache miss at [0xf90c20, line 0xf90c00]
160568807000: system.ruby.cp_cntrl0.sequencer: Cache miss at [0xc62610, line 0xc62600]
160568809000: system.ruby.cp_cntrl0.sequencer: Cache miss at [0x13a7710, line 0x13a7700]
160568811000: system.ruby.cp_cntrl0.sequencer: Cache miss at [0x13a7710, line 0x13a7700]
160568813000: system.ruby.cp_cntrl0.sequencer: Cache miss at [0x13a7718, line 0x13a7700]
160568815000: system.ruby.cp_cntrl0.sequencer: Cache miss at [0x13a7718, line 0x13a7700]
160568817000: system.ruby.cp_cntrl0.sequencer: Cache miss at [0x13a7718, line 0x13a7700]
160568819000: system.ruby.cp_cntrl0.sequencer: Cache miss at [0x13a7720, line 0x13a7700]
160568821000: system.ruby.cp_cntrl0.sequencer: Cache miss at [0x13a7720, line 0x13a7700]
160568823000: system.ruby.cp_cntrl0.sequencer: Cache miss at [0x13a7720, line 0x13a7700]
160568825000: system.ruby.cp_cntrl0.sequencer: Cache miss at [0x38a68, line 0x38a40]
160568827000: system.ruby.cp_cntrl0.sequencer: Cache miss at [0x3fa8740, line 0x3fa8740]
160568829000: system.ruby.cp_cntrl0.sequencer: Cache miss at [0x10df8a8, line 0x10df880]
160568831000: system.ruby.cp_cntrl0.sequencer: Cache miss at [0x3fa8748, line 0x3fa8740]
160568833000: system.ruby.cp_cntrl0.sequencer: Cache miss at [0x3fa8748, line 0x3fa8740]
160568835000: system.ruby.cp_cntrl0.sequencer: Cache miss at [0x3fa8740, line 0x3fa8740]
160568837000: system.ruby.cp_cntrl0.sequencer: Cache miss at [0x38a68, line 0x38a40]
160568839000: system.ruby.cp_cntrl0.sequencer: Cache miss at [0xfaa3f0, line 0xfaa3c0]
160568841000: system.ruby.cp_cntrl0.sequencer: Cache miss at [0xfaa3f0, line 0xfaa3c0]
160568843000: system.ruby.cp_cntrl0.sequencer: Cache miss at [0xfaa3f8, line 0xfaa3c0]
160568845000: system.ruby.cp_cntrl0.sequencer: Cache miss at [0xf90c20, line 0xf90c00]
160568847000: system.ruby.cp_cntrl0.sequencer: Cache miss at [0xc62610, line 0xc62600]
160568849000: system.ruby.cp_cntrl0.sequencer: Cache miss at [0x13a7710, line 0x13a7700]
160568851000: system.ruby.cp_cntrl0.sequencer: Cache miss at [0x13a7710, line 0x13a7700]
160568853000: system.ruby.cp_cntrl0.sequencer: Cache miss at [0x13a7718, line 0x13a7700]
160568855000: system.ruby.cp_cntrl0.sequencer: Cache miss at [0x13a7718, line 0x13a7700]
160568857000: system.ruby.cp_cntrl0.sequencer: Cache miss at [0x13a7718, line 0x13a7700]
160568859000: system.ruby.cp_cntrl0.sequencer: Cache miss at [0x13a7720, line 0x13a7700]
160568861000: system.ruby.cp_cntrl0.sequencer: Cache miss at [0x13a7720, line 0x13a7700]
160568863000: system.ruby.cp_cntrl0.sequencer: Cache miss at [0x13a7720, line 0x13a7700]
160568865000: system.ruby.cp_cntrl0.sequencer: Cache miss at [0x38a68, line 0x38a40]
160568867000: system.ruby.cp_cntrl0.sequencer: Cache miss at [0x3fa8740, line 0x3fa8740]
160568869000: system.ruby.cp_cntrl0.sequencer: Cache miss at [0x10df8a8, line 0x10df880]
160568871000: system.ruby.cp_cntrl0.sequencer: Cache miss at [0x3fa8748, line 0x3fa8740]
160568873000: system.ruby.cp_cntrl0.sequencer: Cache miss at [0x3fa8748, line 0x3fa8740]
160568875000: system.ruby.cp_cntrl0.sequencer: Cache miss at [0x3fa8740, line 0x3fa8740]
160568877000: system.ruby.cp_cntrl0.sequencer: Cache miss at [0x38a68, line 0x38a40]
160568879000: system.ruby.cp_cntrl0.sequencer: Cache miss at [0xfaa3f0, line 0xfaa3c0]
160568881000: system.ruby.cp_cntrl0.sequencer: Cache miss at [0xfaa3f0, line 0xfaa3c0]
160568883000: system.ruby.cp_cntrl0.sequencer: Cache miss at [0xfaa3f8, line 0xfaa3c0]
160568885000: system.ruby.cp_cntrl0.sequencer: Cache miss at [0xf90c20, line 0xf90c00]
160568887000: system.ruby.cp_cntrl0.sequencer: Cache miss at [0xc62610, line 0xc62600]
160568889000: system.ruby.cp_cntrl0.sequencer: Cache miss at [0x13a7710, line 0x13a7700]
160568891000: system.ruby.cp_cntrl0.sequencer: Cache miss at [0x13a7710, line 0x13a7700]
160568893000: system.ruby.cp_cntrl0.sequencer: Cache miss at [0x13a7718, line 0x13a7700]
160568895000: system.ruby.cp_cntrl0.sequencer: Cache miss at [0x13a7718, line 0x13a7700]
160568897000: system.ruby.cp_cntrl0.sequencer: Cache miss at [0x13a7718, line 0x13a7700]
160568899000: system.ruby.cp_cntrl0.sequencer: Cache miss at [0x13a7720, line 0x13a7700]
160568901000: system.ruby.cp_cntrl0.sequencer: Cache miss at [0x13a7720, line 0x13a7700]
160568903000: system.ruby.cp_cntrl0.sequencer: Cache miss at [0x13a7720, line 0x13a7700]
160568905000: system.ruby.cp_cntrl0.sequencer: Cache miss at [0x38a68, line 0x38a40]
160568907000: system.ruby.cp_cntrl0.sequencer: Cache miss at [0x3fa8740, line 0x3fa8740]
160568909000: system.ruby.cp_cntrl0.sequencer: Cache miss at [0x10df8a8, line 0x10df880]
160568911000: system.ruby.cp_cntrl0.sequencer: Cache miss at [0x3fa8748, line 0x3fa8740]
160568913000: system.ruby.cp_cntrl0.sequencer: Cache miss at [0x3fa8748, line 0x3fa8740]
160568915000: system.ruby.cp_cntrl0.sequencer: Cache miss at [0x3fa8740, line 0x3fa8740]
160568917000: system.ruby.cp_cntrl0.sequencer: Cache miss at [0x38a68, line 0x38a40]
160568919000: system.ruby.cp_cntrl0.sequencer: Cache miss at [0xfaa3f0, line 0xfaa3c0]
160568921000: system.ruby.cp_cntrl0.sequencer: Cache miss at [0xfaa3f0, line 0xfaa3c0]
160568923000: system.ruby.cp_cntrl0.sequencer: Cache miss at [0xfaa3f8, line 0xfaa3c0]
160568925000: system.ruby.cp_cntrl0.sequencer: Cache miss at [0xf90c20, line 0xf90c00]
160568927000: system.ruby.cp_cntrl0.sequencer: Cache miss at [0xc62610, line 0xc62600]
160568929000: system.ruby.cp_cntrl0.sequencer: Cache miss at [0x13a7710, line 0x13a7700]
160568931000: system.ruby.cp_cntrl0.sequencer: Cache miss at [0x13a7710, line 0x13a7700]
160568933000: system.ruby.cp_cntrl0.sequencer: Cache miss at [0x13a7718, line 0x13a7700]
160568935000: system.ruby.cp_cntrl0.sequencer: Cache miss at [0x13a7718, line 0x13a7700]
160568937000: system.ruby.cp_cntrl0.sequencer: Cache miss at [0x13a7718, line 0x13a7700]
160568939000: system.ruby.cp_cntrl0.sequencer: Cache miss at [0x13a7720, line 0x13a7700]
160568941000: system.ruby.cp_cntrl0.sequencer: Cache miss at [0x13a7720, line 0x13a7700]
160568943000: system.ruby.cp_cntrl0.sequencer: Cache miss at [0x13a7720, line 0x13a7700]
160568945000: system.ruby.cp_cntrl0.sequencer: Cache miss at [0x38a68, line 0x38a40]
160568947000: system.ruby.cp_cntrl0.sequencer: Cache miss at [0x3fa8740, line 0x3fa8740]
160568949000: system.ruby.cp_cntrl0.sequencer: Cache miss at [0x10df8a8, line 0x10df880]
160568951000: system.ruby.cp_cntrl0.sequencer: Cache miss at [0x3fa8748, line 0x3fa8740]
160568953000: system.ruby.cp_cntrl0.sequencer: Cache miss at [0x3fa8748, line 0x3fa8740]
160568955000: system.ruby.cp_cntrl0.sequencer: Cache miss at [0x3fa8740, line 0x3fa8740]
160568957000: system.ruby.cp_cntrl0.sequencer: Cache miss at [0x38a68, line 0x38a40]
160568959000: system.ruby.cp_cntrl0.sequencer: Cache miss at [0xfaa3f0, line 0xfaa3c0]
160568961000: system.ruby.cp_cntrl0.sequencer: Cache miss at [0xfaa3f0, line 0xfaa3c0]
160568963000: system.ruby.cp_cntrl0.sequencer: Cache miss at [0xfaa3f8, line 0xfaa3c0]
160568965000: system.ruby.cp_cntrl0.sequencer: Cache miss at [0xf90c20, line 0xf90c00]
160568967000: system.ruby.cp_cntrl0.sequencer: Cache miss at [0xc62610, line 0xc62600]
160568969000: system.ruby.cp_cntrl0.sequencer: Cache miss at [0x13a7710, line 0x13a7700]
160568971000: system.ruby.cp_cntrl0.sequencer: Cache miss at [0x13a7710, line 0x13a7700]
160568973000: system.ruby.cp_cntrl0.sequencer: Cache miss at [0x13a7718, line 0x13a7700]
160568975000: system.ruby.cp_cntrl0.sequencer: Cache miss at [0x13a7718, line 0x13a7700]
160568977000: system.ruby.cp_cntrl0.sequencer: Cache miss at [0x13a7718, line 0x13a7700]
160568979000: system.ruby.cp_cntrl0.sequencer: Cache miss at [0x13a7720, line 0x13a7700]
160568981000: system.ruby.cp_cntrl0.sequencer: Cache miss at [0x13a7720, line 0x13a7700]
160568983000: system.ruby.cp_cntrl0.sequencer: Cache miss at [0x13a7720, line 0x13a7700]
160568985000: system.ruby.cp_cntrl0.sequencer: Cache miss at [0x38a68, line 0x38a40]
160568987000: system.ruby.cp_cntrl0.sequencer: Cache miss at [0x3fa8740, line 0x3fa8740]
160568989000: system.ruby.cp_cntrl0.sequencer: Cache miss at [0x10df8a8, line 0x10df880]
160568991000: system.ruby.cp_cntrl0.sequencer: Cache miss at [0x3fa8748, line 0x3fa8740]
160568993000: system.ruby.cp_cntrl0.sequencer: Cache miss at [0x3fa8748, line 0x3fa8740]
160568995000: system.ruby.cp_cntrl0.sequencer: Cache miss at [0x3fa8740, line 0x3fa8740]
160568997000: system.ruby.cp_cntrl0.sequencer: Cache miss at [0x38a68, line 0x38a40]
160568999000: system.ruby.cp_cntrl0.sequencer: Cache miss at [0xfaa3f0, line 0xfaa3c0]
160569001000: system.ruby.cp_cntrl0.sequencer: Cache miss at [0xfaa3f0, line 0xfaa3c0]
160569003000: system.ruby.cp_cntrl0.sequencer: Cache miss at [0xfaa3f8, line 0xfaa3c0]
160569005000: system.ruby.cp_cntrl0.sequencer: Cache miss at [0xf90c20, line 0xf90c00]
160569007000: system.ruby.cp_cntrl0.sequencer: Cache miss at [0xc62610, line 0xc62600]
160569008040: system.ruby.scalar_cntrl0.sequencer: Cache hit at [0x3eb5000, line 0x3eb5000]
160569009000: system.ruby.cp_cntrl0.sequencer: Cache miss at [0x13a7710, line 0x13a7700]
160569011000: system.ruby.cp_cntrl0.sequencer: Cache miss at [0x13a7710, line 0x13a7700]
160569013000: system.ruby.cp_cntrl0.sequencer: Cache miss at [0x13a7718, line 0x13a7700]
160569015000: system.ruby.cp_cntrl0.sequencer: Cache miss at [0x13a7718, line 0x13a7700]
160569017000: system.ruby.cp_cntrl0.sequencer: Cache miss at [0x13a7718, line 0x13a7700]
160569019000: system.ruby.cp_cntrl0.sequencer: Cache miss at [0x13a7720, line 0x13a7700]
160569021000: system.ruby.cp_cntrl0.sequencer: Cache miss at [0x13a7720, line 0x13a7700]
160569023000: system.ruby.cp_cntrl0.sequencer: Cache miss at [0x13a7720, line 0x13a7700]
160569025000: system.ruby.cp_cntrl0.sequencer: Cache miss at [0x38a68, line 0x38a40]
160569027000: system.ruby.cp_cntrl0.sequencer: Cache miss at [0x3fa8740, line 0x3fa8740]
160569029000: system.ruby.cp_cntrl0.sequencer: Cache miss at [0x10df8a8, line 0x10df880]
160569031000: system.ruby.cp_cntrl0.sequencer: Cache miss at [0x3fa8748, line 0x3fa8740]
160569033000: system.ruby.cp_cntrl0.sequencer: Cache miss at [0x3fa8748, line 0x3fa8740]
160569035000: system.ruby.cp_cntrl0.sequencer: Cache miss at [0x3fa8740, line 0x3fa8740]
160569037000: system.ruby.cp_cntrl0.sequencer: Cache miss at [0x38a68, line 0x38a40]
160569039000: system.ruby.cp_cntrl0.sequencer: Cache miss at [0xfaa3f0, line 0xfaa3c0]
160569041000: system.ruby.cp_cntrl0.sequencer: Cache miss at [0xfaa3f0, line 0xfaa3c0]
160569043000: system.ruby.cp_cntrl0.sequencer: Cache miss at [0xfaa3f8, line 0xfaa3c0]
160569045000: system.ruby.cp_cntrl0.sequencer: Cache miss at [0xf90c20, line 0xf90c00]
160569047000: system.ruby.cp_cntrl0.sequencer: Cache miss at [0xc62610, line 0xc62600]
160569049000: system.ruby.cp_cntrl0.sequencer: Cache miss at [0x13a7710, line 0x13a7700]
160569051000: system.ruby.cp_cntrl0.sequencer: Cache miss at [0x13a7710, line 0x13a7700]
160569053000: system.ruby.cp_cntrl0.sequencer: Cache miss at [0x13a7718, line 0x13a7700]
160569055000: system.ruby.cp_cntrl0.sequencer: Cache miss at [0x13a7718, line 0x13a7700]
160569057000: system.ruby.cp_cntrl0.sequencer: Cache miss at [0x13a7718, line 0x13a7700]
160569059000: system.ruby.cp_cntrl0.sequencer: Cache miss at [0x13a7720, line 0x13a7700]
160569061000: system.ruby.cp_cntrl0.sequencer: Cache miss at [0x13a7720, line 0x13a7700]
160569063000: system.ruby.cp_cntrl0.sequencer: Cache miss at [0x13a7720, line 0x13a7700]
160569065000: system.ruby.cp_cntrl0.sequencer: Cache miss at [0x38a68, line 0x38a40]
160569067000: system.ruby.cp_cntrl0.sequencer: Cache miss at [0x3fa8740, line 0x3fa8740]
160569069000: system.ruby.cp_cntrl0.sequencer: Cache miss at [0x10df8a8, line 0x10df880]
160569071000: system.ruby.cp_cntrl0.sequencer: Cache miss at [0x3fa8748, line 0x3fa8740]
160569073000: system.ruby.cp_cntrl0.sequencer: Cache miss at [0x3fa8748, line 0x3fa8740]
160569075000: system.ruby.cp_cntrl0.sequencer: Cache miss at [0x3fa8740, line 0x3fa8740]
160569077000: system.ruby.cp_cntrl0.sequencer: Cache miss at [0x38a68, line 0x38a40]
160569079000: system.ruby.cp_cntrl1.sequencer: Cache hit at [0x10d9af8, line 0x10d9ac0]
160569079000: system.ruby.cp_cntrl0.sequencer: Cache miss at [0xfaa3f0, line 0xfaa3c0]
160569081000: system.ruby.cp_cntrl0.sequencer: Cache miss at [0xfaa3f0, line 0xfaa3c0]
160569081000: system.ruby.cp_cntrl1.sequencer: Cache miss at [0xc906f0, line 0xc906c0]
160569083000: system.ruby.cp_cntrl1.sequencer: Cache miss at [0xc906f8, line 0xc906c0]
160569083000: system.ruby.cp_cntrl0.sequencer: Cache miss at [0xfaa3f8, line 0xfaa3c0]
160569085000: system.ruby.cp_cntrl0.sequencer: Cache miss at [0xf90c20, line 0xf90c00]
160569085000: system.ruby.cp_cntrl1.sequencer: Cache miss at [0xc906f8, line 0xc906c0]
160569087000: system.ruby.cp_cntrl1.sequencer: Cache miss at [0xc906f8, line 0xc906c0]
160569087000: system.ruby.cp_cntrl0.sequencer: Cache miss at [0xc62610, line 0xc62600]
160569089000: system.ruby.cp_cntrl0.sequencer: Cache miss at [0x13a7710, line 0x13a7700]
160569089000: system.ruby.cp_cntrl1.sequencer: Cache miss at [0xc90700, line 0xc90700]
160569091000: system.ruby.cp_cntrl1.sequencer: Cache miss at [0x53d78, line 0x53d40]
160569091000: system.ruby.cp_cntrl0.sequencer: Cache miss at [0x13a7710, line 0x13a7700]
160569093000: system.ruby.cp_cntrl0.sequencer: Cache miss at [0x13a7718, line 0x13a7700]
160569093000: system.ruby.cp_cntrl1.sequencer: Cache miss at [0xc90700, line 0xc90700]
160569095000: system.ruby.cp_cntrl1.sequencer: Cache miss at [0x139b5c0, line 0x139b5c0]
160569095000: system.ruby.cp_cntrl0.sequencer: Cache miss at [0x13a7718, line 0x13a7700]
160569097000: system.ruby.cp_cntrl0.sequencer: Cache miss at [0x13a7718, line 0x13a7700]
160569097000: system.ruby.cp_cntrl1.sequencer: Cache miss at [0xc90708, line 0xc90700]
160569099000: system.ruby.cp_cntrl1.sequencer: Cache miss at [0xc90708, line 0xc90700]
160569099000: system.ruby.cp_cntrl0.sequencer: Cache miss at [0x13a7720, line 0x13a7700]
160569101000: system.ruby.cp_cntrl0.sequencer: Cache miss at [0x13a7720, line 0x13a7700]
160569101000: system.ruby.cp_cntrl1.sequencer: Cache miss at [0xc90710, line 0xc90700]
160569103000: system.ruby.cp_cntrl1.sequencer: Cache miss at [0xc90710, line 0xc90700]
160569103000: system.ruby.cp_cntrl0.sequencer: Cache miss at [0x13a7720, line 0x13a7700]
160569105000: system.ruby.cp_cntrl0.sequencer: Cache miss at [0x38a68, line 0x38a40]
160569105000: system.ruby.cp_cntrl1.sequencer: Cache miss at [0xc90710, line 0xc90700]
160569107000: system.ruby.cp_cntrl1.sequencer: Cache miss at [0xc90718, line 0xc90700]
160569107000: system.ruby.cp_cntrl0.sequencer: Cache miss at [0x3fa8740, line 0x3fa8740]
160569109000: system.ruby.cp_cntrl0.sequencer: Cache miss at [0x10df8a8, line 0x10df880]
160569109000: system.ruby.cp_cntrl1.sequencer: Cache miss at [0xc90720, line 0xc90700]
160569111000: system.ruby.cp_cntrl1.sequencer: Cache miss at [0xc90720, line 0xc90700]
[...]
160574909000: system.ruby.cp_cntrl0.sequencer: Cache miss at [0x3fa8740, line 0x3fa8740]
160574911000: system.ruby.cp_cntrl0.sequencer: Cache miss at [0x10df8a8, line 0x10df880]
160574913000: system.ruby.cp_cntrl0.sequencer: Cache miss at [0x3fa8748, line 0x3fa8740]
160574915000: system.ruby.cp_cntrl0.sequencer: Cache miss at [0x3fa8748, line 0x3fa8740]
160574917000: system.ruby.cp_cntrl0.sequencer: Cache miss at [0x3fa8740, line 0x3fa8740]
160574919000: system.ruby.cp_cntrl0.sequencer: Cache miss at [0x38a68, line 0x38a40]
160574921000: system.ruby.cp_cntrl0.sequencer: Cache miss at [0xfaa3f0, line 0xfaa3c0]
160574923000: system.ruby.cp_cntrl0.sequencer: Cache miss at [0xfaa3f0, line 0xfaa3c0]
160574925000: system.ruby.cp_cntrl0.sequencer: Cache miss at [0xfaa3f8, line 0xfaa3c0]
160574927000: system.ruby.cp_cntrl0.sequencer: Cache miss at [0xf90c20, line 0xf90c00]
160574929000: system.ruby.cp_cntrl0.sequencer: Cache miss at [0xc62610, line 0xc62600]
160574931000: system.ruby.cp_cntrl0.sequencer: Cache miss at [0x13a7710, line 0x13a7700]
160574933000: system.ruby.cp_cntrl0.sequencer: Cache miss at [0x13a7710, line 0x13a7700]
160574935000: system.ruby.cp_cntrl0.sequencer: Cache miss at [0x13a7718, line 0x13a7700]
160574937000: system.ruby.cp_cntrl0.sequencer: Cache miss at [0x13a7718, line 0x13a7700]
160574939000: system.ruby.cp_cntrl0.sequencer: Cache miss at [0x13a7718, line 0x13a7700]
160574941000: system.ruby.cp_cntrl0.sequencer: Cache miss at [0x13a7720, line 0x13a7700]
160574943000: system.ruby.cp_cntrl0.sequencer: Cache miss at [0x13a7720, line 0x13a7700]
160574945000: system.ruby.cp_cntrl0.sequencer: Cache miss at [0x13a7720, line 0x13a7700]
160574947000: system.ruby.cp_cntrl0.sequencer: Cache miss at [0x38a68, line 0x38a40]
160574949000: system.ruby.cp_cntrl0.sequencer: Cache miss at [0x3fa8740, line 0x3fa8740]
160574951000: system.ruby.cp_cntrl0.sequencer: Cache miss at [0x10df8a8, line 0x10df880]
160574953000: system.ruby.cp_cntrl0.sequencer: Cache miss at [0x3fa8748, line 0x3fa8740]
160574955000: system.ruby.cp_cntrl0.sequencer: Cache miss at [0x3fa8748, line 0x3fa8740]
160574957000: system.ruby.cp_cntrl0.sequencer: Cache miss at [0x3fa8740, line 0x3fa8740]
160574959000: system.ruby.cp_cntrl0.sequencer: Cache miss at [0x38a68, line 0x38a40]
160574961000: system.ruby.cp_cntrl0.sequencer: Cache miss at [0xfaa3f0, line 0xfaa3c0]
160574963000: system.ruby.cp_cntrl0.sequencer: Cache miss at [0xfaa3f0, line 0xfaa3c0]
160574965000: system.ruby.cp_cntrl0.sequencer: Cache miss at [0xfaa3f8, line 0xfaa3c0]
160574967000: system.ruby.cp_cntrl0.sequencer: Cache miss at [0xf90c20, line 0xf90c00]
160574969000: system.ruby.cp_cntrl0.sequencer: Cache miss at [0xc62610, line 0xc62600]
160574971000: system.ruby.cp_cntrl0.sequencer: Cache miss at [0x13a7710, line 0x13a7700]
160574973000: system.ruby.cp_cntrl0.sequencer: Cache miss at [0x13a7710, line 0x13a7700]
160574975000: system.ruby.cp_cntrl0.sequencer: Cache miss at [0x13a7718, line 0x13a7700]
160574977000: system.ruby.cp_cntrl0.sequencer: Cache miss at [0x13a7718, line 0x13a7700]
160574979000: system.ruby.cp_cntrl0.sequencer: Cache miss at [0x13a7718, line 0x13a7700]
160574981000: system.ruby.cp_cntrl0.sequencer: Cache miss at [0x13a7720, line 0x13a7700]
160574983000: system.ruby.cp_cntrl0.sequencer: Cache miss at [0x13a7720, line 0x13a7700]
160574985000: system.ruby.cp_cntrl0.sequencer: Cache miss at [0x13a7720, line 0x13a7700]
160574987000: system.ruby.cp_cntrl0.sequencer: Cache miss at [0x38a68, line 0x38a40]
160574989000: system.ruby.cp_cntrl0.sequencer: Cache miss at [0x3fa8740, line 0x3fa8740]
160574991000: system.ruby.cp_cntrl0.sequencer: Cache miss at [0x10df8a8, line 0x10df880]
160574993000: system.ruby.cp_cntrl0.sequencer: Cache miss at [0x3fa8748, line 0x3fa8740]
160574995000: system.ruby.cp_cntrl0.sequencer: Cache miss at [0x3fa8748, line 0x3fa8740]
160574997000: system.ruby.cp_cntrl0.sequencer: Cache miss at [0x3fa8740, line 0x3fa8740]
160574999000: system.ruby.cp_cntrl0.sequencer: Cache miss at [0x38a68, line 0x38a40]
160575001000: system.ruby.cp_cntrl0.sequencer: Cache miss at [0xfaa3f0, line 0xfaa3c0]
160575003000: system.ruby.cp_cntrl0.sequencer: Cache miss at [0xfaa3f0, line 0xfaa3c0]
160575005000: system.ruby.cp_cntrl0.sequencer: Cache miss at [0xfaa3f8, line 0xfaa3c0]
160575007000: system.ruby.cp_cntrl0.sequencer: Cache miss at [0xf90c20, line 0xf90c00]
160575009000: system.ruby.cp_cntrl0.sequencer: Cache miss at [0xc62610, line 0xc62600]
160575011000: system.ruby.cp_cntrl0.sequencer: Cache miss at [0x13a7710, line 0x13a7700]
160575013000: system.ruby.cp_cntrl0.sequencer: Cache miss at [0x13a7710, line 0x13a7700]
160575015000: system.ruby.cp_cntrl0.sequencer: Cache miss at [0x13a7718, line 0x13a7700]
160575017000: system.ruby.cp_cntrl0.sequencer: Cache miss at [0x13a7718, line 0x13a7700]
160575019000: system.ruby.cp_cntrl0.sequencer: Cache miss at [0x13a7718, line 0x13a7700]
160575021000: system.ruby.cp_cntrl0.sequencer: Cache miss at [0x13a7720, line 0x13a7700]
160575023000: system.ruby.cp_cntrl0.sequencer: Cache miss at [0x13a7720, line 0x13a7700]
160575024795: system.ruby.tcp_cntrl0.coalescer: ReadCallBack GPU Cache miss at <extra arg>%x
160575024795: system.ruby.tcp_cntrl0.coalescer: GPU Cache miss at [0x1386184, line 0x1386180]
160575025000: system.ruby.cp_cntrl0.sequencer: Cache miss at [0x13a7720, line 0x13a7700]
160575027000: system.ruby.cp_cntrl0.sequencer: Cache miss at [0x38a68, line 0x38a40]
160575029000: system.ruby.cp_cntrl0.sequencer: Cache miss at [0x3fa8740, line 0x3fa8740]
160575031000: system.ruby.cp_cntrl0.sequencer: Cache miss at [0x10df8a8, line 0x10df880]
160575033000: system.ruby.cp_cntrl0.sequencer: Cache miss at [0x3fa8748, line 0x3fa8740]
160575035000: system.ruby.cp_cntrl0.sequencer: Cache miss at [0x3fa8748, line 0x3fa8740]
160575037000: system.ruby.cp_cntrl0.sequencer: Cache miss at [0x3fa8740, line 0x3fa8740]
160575039000: system.ruby.cp_cntrl0.sequencer: Cache miss at [0x38a68, line 0x38a40]
160575041000: system.ruby.cp_cntrl0.sequencer: Cache miss at [0xfaa3f0, line 0xfaa3c0]
160575043000: system.ruby.cp_cntrl0.sequencer: Cache miss at [0xfaa3f0, line 0xfaa3c0]
160575045000: system.ruby.cp_cntrl0.sequencer: Cache miss at [0xfaa3f8, line 0xfaa3c0]
160575047000: system.ruby.cp_cntrl0.sequencer: Cache miss at [0xf90c20, line 0xf90c00]
160575049000: system.ruby.cp_cntrl0.sequencer: Cache miss at [0xc62610, line 0xc62600]
160575051000: system.ruby.cp_cntrl0.sequencer: Cache miss at [0x13a7710, line 0x13a7700]
160575053000: system.ruby.cp_cntrl0.sequencer: Cache miss at [0x13a7710, line 0x13a7700]
160575055000: system.ruby.cp_cntrl0.sequencer: Cache miss at [0x13a7718, line 0x13a7700]
160575057000: system.ruby.cp_cntrl0.sequencer: Cache miss at [0x13a7718, line 0x13a7700]
160575059000: system.ruby.cp_cntrl0.sequencer: Cache miss at [0x13a7718, line 0x13a7700]
160575061000: system.ruby.cp_cntrl0.sequencer: Cache miss at [0x13a7720, line 0x13a7700]
160575063000: system.ruby.cp_cntrl0.sequencer: Cache miss at [0x13a7720, line 0x13a7700]
160575065000: system.ruby.cp_cntrl0.sequencer: Cache miss at [0x13a7720, line 0x13a7700]
160575067000: system.ruby.cp_cntrl0.sequencer: Cache miss at [0x38a68, line 0x38a40]
160575069000: system.ruby.cp_cntrl0.sequencer: Cache miss at [0x3fa8740, line 0x3fa8740]
160575071000: system.ruby.cp_cntrl0.sequencer: Cache miss at [0x10df8a8, line 0x10df880]
160575073000: system.ruby.cp_cntrl0.sequencer: Cache miss at [0x3fa8748, line 0x3fa8740]
160575075000: system.ruby.cp_cntrl0.sequencer: Cache miss at [0x3fa8748, line 0x3fa8740]
160575077000: system.ruby.cp_cntrl0.sequencer: Cache miss at [0x3fa8740, line 0x3fa8740]
160575079000: system.ruby.cp_cntrl0.sequencer: Cache miss at [0x38a68, line 0x38a40]
160575081000: system.ruby.cp_cntrl0.sequencer: Cache miss at [0xfaa3f0, line 0xfaa3c0]
160575083000: system.ruby.cp_cntrl0.sequencer: Cache miss at [0xfaa3f0, line 0xfaa3c0]
160575085000: system.ruby.cp_cntrl0.sequencer: Cache miss at [0xfaa3f8, line 0xfaa3c0]
160575087000: system.ruby.cp_cntrl0.sequencer: Cache miss at [0xf90c20, line 0xf90c00]
160575089000: system.ruby.cp_cntrl0.sequencer: Cache miss at [0xc62610, line 0xc62600]
160575091000: system.ruby.cp_cntrl0.sequencer: Cache miss at [0x13a7710, line 0x13a7700]
160575093000: system.ruby.cp_cntrl0.sequencer: Cache miss at [0x13a7710, line 0x13a7700]
160575095000: system.ruby.cp_cntrl0.sequencer: Cache miss at [0x13a7718, line 0x13a7700]
160575097000: system.ruby.cp_cntrl0.sequencer: Cache miss at [0x13a7718, line 0x13a7700]
160575099000: system.ruby.cp_cntrl0.sequencer: Cache miss at [0x13a7718, line 0x13a7700]
160575101000: system.ruby.cp_cntrl0.sequencer: Cache miss at [0x13a7720, line 0x13a7700]
160575103000: system.ruby.cp_cntrl0.sequencer: Cache miss at [0x13a7720, line 0x13a7700]
160575105000: system.ruby.cp_cntrl0.sequencer: Cache miss at [0x13a7720, line 0x13a7700]
160575105270: system.ruby.tcp_cntrl0.coalescer: ReadCallBack GPU Cache hit at <extra arg>%x
160575105270: system.ruby.tcp_cntrl0.coalescer: GPU Cache hit at [0x1386108, line 0x1386100]
160575107000: system.ruby.cp_cntrl0.sequencer: Cache miss at [0x38a68, line 0x38a40]
160575109000: system.ruby.cp_cntrl0.sequencer: Cache miss at [0x3fa8740, line 0x3fa8740]
160575111000: system.ruby.cp_cntrl1.sequencer: Cache hit at [0x10d5768, line 0x10d5740]
160575111000: system.ruby.cp_cntrl0.sequencer: Cache miss at [0x10df8a8, line 0x10df880]
160575113000: system.ruby.cp_cntrl0.sequencer: Cache miss at [0x3fa8748, line 0x3fa8740]
160575113000: system.ruby.cp_cntrl1.sequencer: Cache miss at [0x3facb80, line 0x3facb80]
160575115000: system.ruby.cp_cntrl1.sequencer: Cache miss at [0x3facb88, line 0x3facb80]
160575115000: system.ruby.cp_cntrl0.sequencer: Cache miss at [0x3fa8748, line 0x3fa8740]
160575117000: system.ruby.cp_cntrl0.sequencer: Cache miss at [0x3fa8740, line 0x3fa8740]
160575117000: system.ruby.cp_cntrl1.sequencer: Cache miss at [0x139b728, line 0x139b700]
160575119000: system.ruby.cp_cntrl1.sequencer: Cache miss at [0x3facb88, line 0x3facb80]
160575119000: system.ruby.cp_cntrl0.sequencer: Cache miss at [0x38a68, line 0x38a40]
160575121000: system.ruby.cp_cntrl0.sequencer: Cache miss at [0xfaa3f0, line 0xfaa3c0]
160575121000: system.ruby.cp_cntrl1.sequencer: Cache miss at [0x3facb90, line 0x3facb80]
160575123000: system.ruby.cp_cntrl1.sequencer: Cache miss at [0x139cb28, line 0x139cb00]
160575123000: system.ruby.cp_cntrl0.sequencer: Cache miss at [0xfaa3f0, line 0xfaa3c0]
160575125000: system.ruby.cp_cntrl0.sequencer: Cache miss at [0xfaa3f8, line 0xfaa3c0]
160575125000: system.ruby.cp_cntrl1.sequencer: Cache miss at [0x3facb90, line 0x3facb80]
160575127000: system.ruby.cp_cntrl1.sequencer: Cache miss at [0x3facb90, line 0x3facb80]
160575127000: system.ruby.cp_cntrl0.sequencer: Cache miss at [0xf90c20, line 0xf90c00]
160575129000: system.ruby.cp_cntrl0.sequencer: Cache miss at [0xc62610, line 0xc62600]
160575129000: system.ruby.cp_cntrl1.sequencer: Cache miss at [0x3facb98, line 0x3facb80]
160575131000: system.ruby.cp_cntrl1.sequencer: Cache miss at [0x3facb98, line 0x3facb80]
160575131000: system.ruby.cp_cntrl0.sequencer: Cache miss at [0x13a7710, line 0x13a7700]
160575133000: system.ruby.cp_cntrl0.sequencer: Cache miss at [0x13a7710, line 0x13a7700]
160575133000: system.ruby.cp_cntrl1.sequencer: Cache miss at [0x3facdc0, line 0x3facdc0]
160575135000: system.ruby.cp_cntrl1.sequencer: Cache miss at [0x139cb28, line 0x139cb00]
160575135000: system.ruby.cp_cntrl0.sequencer: Cache miss at [0x13a7718, line 0x13a7700]
160575137000: system.ruby.cp_cntrl0.sequencer: Cache miss at [0x13a7718, line 0x13a7700]
160575137000: system.ruby.cp_cntrl1.sequencer: Cache miss at [0x3facdc0, line 0x3facdc0]
160575139000: system.ruby.cp_cntrl1.sequencer: Cache miss at [0x3facdc8, line 0x3facdc0]
160575139000: system.ruby.cp_cntrl0.sequencer: Cache miss at [0x13a7718, line 0x13a7700]
160575141000: system.ruby.cp_cntrl0.sequencer: Cache miss at [0x13a7720, line 0x13a7700]
160575141000: system.ruby.cp_cntrl1.sequencer: Cache miss at [0x139b728, line 0x139b700]
160575143000: system.ruby.cp_cntrl1.sequencer: Cache miss at [0x3facdc8, line 0x3facdc0]
160575143000: system.ruby.cp_cntrl0.sequencer: Cache miss at [0x13a7720, line 0x13a7700]
160575145000: system.ruby.cp_cntrl0.sequencer: Cache miss at [0x13a7720, line 0x13a7700]
160575145000: system.ruby.cp_cntrl1.sequencer: Cache miss at [0x3facdd0, line 0x3facdc0]
160575147000: system.ruby.cp_cntrl1.sequencer: Cache miss at [0x3facdd0, line 0x3facdc0]
160575147000: system.ruby.cp_cntrl0.sequencer: Cache miss at [0x38a68, line 0x38a40]
160575149000: system.ruby.cp_cntrl0.sequencer: Cache miss at [0x3fa8740, line 0x3fa8740]
160575149000: system.ruby.cp_cntrl1.sequencer: Cache miss at [0x3facdd8, line 0x3facdc0]
160575151000: system.ruby.cp_cntrl1.sequencer: Cache miss at [0x139cb38, line 0x139cb00]
160575151000: system.ruby.cp_cntrl0.sequencer: Cache miss at [0x10df8a8, line 0x10df880]
160575153000: system.ruby.cp_cntrl0.sequencer: Cache miss at [0x3fa8748, line 0x3fa8740]
160575153000: system.ruby.cp_cntrl1.sequencer: Cache miss at [0x3facdd8, line 0x3facdc0]
160575155000: system.ruby.cp_cntrl1.sequencer: Cache miss at [0x139cb40, line 0x139cb40]
160575155000: system.ruby.cp_cntrl0.sequencer: Cache miss at [0x3fa8748, line 0x3fa8740]
160575157000: system.ruby.cp_cntrl0.sequencer: Cache miss at [0x3fa8740, line 0x3fa8740]
160575157000: system.ruby.cp_cntrl1.sequencer: Cache miss at [0x3facdd8, line 0x3facdc0]
160575159000: system.ruby.cp_cntrl1.sequencer: Cache miss at [0x139cb48, line 0x139cb40]
160575159000: system.ruby.cp_cntrl0.sequencer: Cache miss at [0x38a68, line 0x38a40]
160575161000: system.ruby.cp_cntrl0.sequencer: Cache miss at [0xfaa3f0, line 0xfaa3c0]
160575161000: system.ruby.cp_cntrl1.sequencer: Cache miss at [0x3facdd8, line 0x3facdc0]
160575163000: system.ruby.cp_cntrl1.sequencer: Cache miss at [0x139cb50, line 0x139cb40]
160575163000: system.ruby.cp_cntrl0.sequencer: Cache miss at [0xfaa3f0, line 0xfaa3c0]
160575165000: system.ruby.cp_cntrl0.sequencer: Cache miss at [0xfaa3f8, line 0xfaa3c0]
160575165000: system.ruby.cp_cntrl1.sequencer: Cache miss at [0x3facdd8, line 0x3facdc0]
160575167000: system.ruby.cp_cntrl1.sequencer: Cache miss at [0x139cb58, line 0x139cb40]
160575167000: system.ruby.cp_cntrl0.sequencer: Cache miss at [0xf90c20, line 0xf90c00]
160575169000: system.ruby.cp_cntrl0.sequencer: Cache miss at [0xc62610, line 0xc62600]
160575169000: system.ruby.cp_cntrl1.sequencer: Cache miss at [0x3facde0, line 0x3facdc0]
160575171000: system.ruby.cp_cntrl1.sequencer: Cache miss at [0x139cb60, line 0x139cb40]
160575171000: system.ruby.cp_cntrl0.sequencer: Cache miss at [0x13a7710, line 0x13a7700]
160575173000: system.ruby.cp_cntrl0.sequencer: Cache miss at [0x13a7710, line 0x13a7700]
160575173000: system.ruby.cp_cntrl1.sequencer: Cache miss at [0x3facde0, line 0x3facdc0]
160575175000: system.ruby.cp_cntrl1.sequencer: Cache miss at [0x139cb68, line 0x139cb40]
160575175000: system.ruby.cp_cntrl0.sequencer: Cache miss at [0x13a7718, line 0x13a7700]
160575177000: system.ruby.cp_cntrl0.sequencer: Cache miss at [0x13a7718, line 0x13a7700]
160575177000: system.ruby.cp_cntrl1.sequencer: Cache miss at [0x3fab208, line 0x3fab200]
160575179000: system.ruby.cp_cntrl1.sequencer: Cache miss at [0x3fab208, line 0x3fab200]
160575179000: system.ruby.cp_cntrl0.sequencer: Cache miss at [0x13a7718, line 0x13a7700]
160575181000: system.ruby.cp_cntrl0.sequencer: Cache miss at [0x13a7720, line 0x13a7700]
160575181000: system.ruby.cp_cntrl1.sequencer: Cache miss at [0x3fab210, line 0x3fab200]
160575183000: system.ruby.cp_cntrl1.sequencer: Cache miss at [0x10df978, line 0x10df940]
160575183000: system.ruby.cp_cntrl0.sequencer: Cache miss at [0x13a7720, line 0x13a7700]
160575185000: system.ruby.cp_cntrl0.sequencer: Cache miss at [0x13a7720, line 0x13a7700]
160575185000: system.ruby.cp_cntrl1.sequencer: Cache miss at [0x3fab210, line 0x3fab200]
160575185745: system.ruby.tcp_cntrl0.coalescer: ReadCallBack GPU Cache hit at <extra arg>%x
160575185745: system.ruby.tcp_cntrl0.coalescer: GPU Cache hit at [0x1386188, line 0x1386180]
160575187000: system.ruby.cp_cntrl1.sequencer: Cache miss at [0x3fab218, line 0x3fab200]
160575187000: system.ruby.cp_cntrl0.sequencer: Cache miss at [0x38a68, line 0x38a40]
160575189000: system.ruby.cp_cntrl0.sequencer: Cache miss at [0x3fa8740, line 0x3fa8740]
160575189000: system.ruby.cp_cntrl1.sequencer: Cache miss at [0x10df970, line 0x10df940]
160575191000: system.ruby.cp_cntrl1.sequencer: Cache miss at [0x3fab218, line 0x3fab200]
160575191000: system.ruby.cp_cntrl0.sequencer: Cache miss at [0x10df8a8, line 0x10df880]
160575193000: system.ruby.cp_cntrl0.sequencer: Cache miss at [0x3fa8748, line 0x3fa8740]
160575193000: system.ruby.cp_cntrl1.sequencer: Cache miss at [0x3fab220, line 0x3fab200]
160575195000: system.ruby.cp_cntrl1.sequencer: Cache miss at [0x10df960, line 0x10df940]
160575195000: system.ruby.cp_cntrl0.sequencer: Cache miss at [0x3fa8748, line 0x3fa8740]
160575197000: system.ruby.cp_cntrl0.sequencer: Cache miss at [0x3fa8740, line 0x3fa8740]
160575197000: system.ruby.cp_cntrl1.sequencer: Cache miss at [0x10df968, line 0x10df940]
160575199000: system.ruby.cp_cntrl1.sequencer: Cache miss at [0x3fab220, line 0x3fab200]
160575199000: system.ruby.cp_cntrl0.sequencer: Cache miss at [0x38a68, line 0x38a40]
160575201000: system.ruby.cp_cntrl0.sequencer: Cache miss at [0xfaa3f0, line 0xfaa3c0]
160575201000: system.ruby.cp_cntrl1.sequencer: Cache miss at [0x139cbe0, line 0x139cbc0]
160575203000: system.ruby.cp_cntrl1.sequencer: Cache miss at [0x3fab220, line 0x3fab200]
160575203000: system.ruby.cp_cntrl0.sequencer: Cache miss at [0xfaa3f0, line 0xfaa3c0]
160575205000: system.ruby.cp_cntrl0.sequencer: Cache miss at [0xfaa3f8, line 0xfaa3c0]
160575205000: system.ruby.cp_cntrl1.sequencer: Cache miss at [0x3fab228, line 0x3fab200]
160575207000: system.ruby.cp_cntrl1.sequencer: Cache miss at [0x10df910, line 0x10df900]
160575207000: system.ruby.cp_cntrl0.sequencer: Cache miss at [0xf90c20, line 0xf90c00]
160575209000: system.ruby.cp_cntrl0.sequencer: Cache miss at [0xc62610, line 0xc62600]
160575209000: system.ruby.cp_cntrl1.sequencer: Cache miss at [0x3fab228, line 0x3fab200]
160575211000: system.ruby.cp_cntrl1.sequencer: Cache miss at [0x3fab230, line 0x3fab200]
160575211000: system.ruby.cp_cntrl0.sequencer: Cache miss at [0x13a7710, line 0x13a7700]
160575213000: system.ruby.cp_cntrl0.sequencer: Cache miss at [0x13a7710, line 0x13a7700]
160575213000: system.ruby.cp_cntrl1.sequencer: Cache miss at [0x139cb88, line 0x139cb80]
160575215000: system.ruby.cp_cntrl1.sequencer: Cache miss at [0x139cb80, line 0x139cb80]
160575215000: system.ruby.cp_cntrl0.sequencer: Cache miss at [0x13a7718, line 0x13a7700]
160575217000: system.ruby.cp_cntrl0.sequencer: Cache miss at [0x13a7718, line 0x13a7700]
160575217000: system.ruby.cp_cntrl1.sequencer: Cache miss at [0x3fab230, line 0x3fab200]
160575219000: system.ruby.cp_cntrl1.sequencer: Cache miss at [0x3fab238, line 0x3fab200]
160575219000: system.ruby.cp_cntrl0.sequencer: Cache miss at [0x13a7718, line 0x13a7700]
160575221000: system.ruby.cp_cntrl0.sequencer: Cache miss at [0x13a7720, line 0x13a7700]
160575221000: system.ruby.cp_cntrl1.sequencer: Cache miss at [0x139cbd8, line 0x139cbc0]
160575223000: system.ruby.cp_cntrl1.sequencer: Cache miss at [0x139cbd0, line 0x139cbc0]
160575223000: system.ruby.cp_cntrl0.sequencer: Cache miss at [0x13a7720, line 0x13a7700]
160575225000: system.ruby.cp_cntrl0.sequencer: Cache miss at [0x13a7720, line 0x13a7700]
160575225000: system.ruby.cp_cntrl1.sequencer: Cache miss at [0x3fab238, line 0x3fab200]
160575227000: system.ruby.cp_cntrl1.sequencer: Cache miss at [0x3fab238, line 0x3fab200]
160575227000: system.ruby.cp_cntrl0.sequencer: Cache miss at [0x38a68, line 0x38a40]
Dummy value = 0
Ticks: 167655990500
Exiting because  exiting with last active thread context
