Global frequency set at 1000000000000 ticks per second
Forcing maxCoalescedReqs to 32 (TLB assoc.) 
Forcing maxCoalescedReqs to 32 (TLB assoc.) 
Forcing maxCoalescedReqs to 32 (TLB assoc.) 
Forcing maxCoalescedReqs to 32 (TLB assoc.) 
Forcing maxCoalescedReqs to 32 (TLB assoc.) 
Forcing maxCoalescedReqs to 32 (TLB assoc.) 
Forcing maxCoalescedReqs to 32 (TLB assoc.) 
Forcing maxCoalescedReqs to 32 (TLB assoc.) 
gem5 Simulator System.  https://www.gem5.org
gem5 is copyrighted software; use the --copyright option for details.

gem5 version DEVELOP-FOR-23.1
gem5 compiled Nov  4 2023 18:02:29
gem5 started Nov  5 2023 03:01:47
gem5 executing on 9e0cf911bd8f, pid 1
command line: build/VEGA_X86/gem5.opt --debug-flag=RubyHitMiss --debug-start=160564781161 --debug-end=160571060985 configs/example/apu_se.py -n 3 --dgpu --gfx-version=gfx900 --num-compute-units=4 --cu-per-sa=4 --num-gpu-complex=1 --reg-alloc-policy=dynamic --num-tccs=8 --num-dirs=64 --mem-size=16GB --mem-type=HBM_2000_4H_1x64 --vreg-file-size=16384 --sreg-file-size=800 --tcc-size=256kB --gpu-clock=1801MHz --ruby-clock=1000MHz --vrf_lm_bus_latency=6 --mem-req-latency=69 --mem-resp-latency=69 --mandatory_queue_latency=1 --max-cu-tokens=160 --max-coalesces-per-cycle=10 --sqc-size=16kB --tcp-size=512B --scalar-mem-req-latency=28 --TCP_latency=4 --tcp-assoc=4 --tcp-num-banks=16 --TCC_latency=121 --tcc-assoc=16 --tcc-tag-access-latency=1 --tcc-data-access-latency=1 --tcp-rp=NRURP --WB_L2 --tcc-rp=NRURP -c gpu_test/nru_test_1

info: Standard input is not a terminal, disabling listeners.
Num SQC =  1 Num scalar caches =  1 Num CU =  4
160564782000: system.ruby.cp_cntrl0.sequencer: Cache miss at [0xfaa3f0, line 0xfaa3c0]
160564784000: system.ruby.cp_cntrl0.sequencer: Cache miss at [0xfaa3f0, line 0xfaa3c0]
160564786000: system.ruby.cp_cntrl0.sequencer: Cache miss at [0xfaa3f8, line 0xfaa3c0]
160564788000: system.ruby.cp_cntrl0.sequencer: Cache miss at [0xf90c20, line 0xf90c00]
160564790000: system.ruby.cp_cntrl0.sequencer: Cache miss at [0xc62610, line 0xc62600]
160564792000: system.ruby.cp_cntrl0.sequencer: Cache miss at [0x13a7710, line 0x13a7700]
160564794000: system.ruby.cp_cntrl0.sequencer: Cache miss at [0x13a7710, line 0x13a7700]
160564796000: system.ruby.cp_cntrl0.sequencer: Cache miss at [0x13a7718, line 0x13a7700]
160564798000: system.ruby.cp_cntrl0.sequencer: Cache miss at [0x13a7718, line 0x13a7700]
160564800000: system.ruby.cp_cntrl0.sequencer: Cache miss at [0x13a7718, line 0x13a7700]
160564802000: system.ruby.cp_cntrl0.sequencer: Cache miss at [0x13a7720, line 0x13a7700]
160564804000: system.ruby.cp_cntrl0.sequencer: Cache miss at [0x13a7720, line 0x13a7700]
160564806000: system.ruby.cp_cntrl0.sequencer: Cache miss at [0x13a7720, line 0x13a7700]
160564808000: system.ruby.cp_cntrl0.sequencer: Cache miss at [0x38a68, line 0x38a40]
160564810000: system.ruby.cp_cntrl0.sequencer: Cache miss at [0x3fa8740, line 0x3fa8740]
160564812000: system.ruby.cp_cntrl0.sequencer: Cache miss at [0x10df9c8, line 0x10df9c0]
160564814000: system.ruby.cp_cntrl0.sequencer: Cache miss at [0x3fa8748, line 0x3fa8740]
160564816000: system.ruby.cp_cntrl0.sequencer: Cache miss at [0x3fa8748, line 0x3fa8740]
160564818000: system.ruby.cp_cntrl0.sequencer: Cache miss at [0x3fa8740, line 0x3fa8740]
160564820000: system.ruby.cp_cntrl0.sequencer: Cache miss at [0x38a68, line 0x38a40]
160564822000: system.ruby.cp_cntrl0.sequencer: Cache miss at [0xfaa3f0, line 0xfaa3c0]
160564824000: system.ruby.cp_cntrl0.sequencer: Cache miss at [0xfaa3f0, line 0xfaa3c0]
160564826000: system.ruby.cp_cntrl0.sequencer: Cache miss at [0xfaa3f8, line 0xfaa3c0]
160564828000: system.ruby.cp_cntrl0.sequencer: Cache miss at [0xf90c20, line 0xf90c00]
160564830000: system.ruby.cp_cntrl0.sequencer: Cache miss at [0xc62610, line 0xc62600]
160564832000: system.ruby.cp_cntrl0.sequencer: Cache miss at [0x13a7710, line 0x13a7700]
160564834000: system.ruby.cp_cntrl0.sequencer: Cache miss at [0x13a7710, line 0x13a7700]
160564836000: system.ruby.cp_cntrl0.sequencer: Cache miss at [0x13a7718, line 0x13a7700]
160564838000: system.ruby.cp_cntrl0.sequencer: Cache miss at [0x13a7718, line 0x13a7700]
160564840000: system.ruby.cp_cntrl0.sequencer: Cache miss at [0x13a7718, line 0x13a7700]
160564842000: system.ruby.cp_cntrl0.sequencer: Cache miss at [0x13a7720, line 0x13a7700]
160564844000: system.ruby.cp_cntrl0.sequencer: Cache miss at [0x13a7720, line 0x13a7700]
160564846000: system.ruby.cp_cntrl0.sequencer: Cache miss at [0x13a7720, line 0x13a7700]
160564848000: system.ruby.cp_cntrl0.sequencer: Cache miss at [0x38a68, line 0x38a40]
160564850000: system.ruby.cp_cntrl0.sequencer: Cache miss at [0x3fa8740, line 0x3fa8740]
160564852000: system.ruby.cp_cntrl0.sequencer: Cache miss at [0x10df9c8, line 0x10df9c0]
160564854000: system.ruby.cp_cntrl0.sequencer: Cache miss at [0x3fa8748, line 0x3fa8740]
160564856000: system.ruby.cp_cntrl0.sequencer: Cache miss at [0x3fa8748, line 0x3fa8740]
160564858000: system.ruby.cp_cntrl0.sequencer: Cache miss at [0x3fa8740, line 0x3fa8740]
160564860000: system.ruby.cp_cntrl0.sequencer: Cache miss at [0x38a68, line 0x38a40]
160564862000: system.ruby.cp_cntrl0.sequencer: Cache miss at [0xfaa3f0, line 0xfaa3c0]
160564864000: system.ruby.cp_cntrl0.sequencer: Cache miss at [0xfaa3f0, line 0xfaa3c0]
160564866000: system.ruby.cp_cntrl0.sequencer: Cache miss at [0xfaa3f8, line 0xfaa3c0]
160564868000: system.ruby.cp_cntrl0.sequencer: Cache miss at [0xf90c20, line 0xf90c00]
160564870000: system.ruby.cp_cntrl0.sequencer: Cache miss at [0xc62610, line 0xc62600]
160564872000: system.ruby.cp_cntrl0.sequencer: Cache miss at [0x13a7710, line 0x13a7700]
160564874000: system.ruby.cp_cntrl0.sequencer: Cache miss at [0x13a7710, line 0x13a7700]
160564876000: system.ruby.cp_cntrl0.sequencer: Cache miss at [0x13a7718, line 0x13a7700]
160564878000: system.ruby.cp_cntrl0.sequencer: Cache miss at [0x13a7718, line 0x13a7700]
160564880000: system.ruby.cp_cntrl0.sequencer: Cache miss at [0x13a7718, line 0x13a7700]
160564882000: system.ruby.cp_cntrl0.sequencer: Cache miss at [0x13a7720, line 0x13a7700]
160564884000: system.ruby.cp_cntrl0.sequencer: Cache miss at [0x13a7720, line 0x13a7700]
160564886000: system.ruby.cp_cntrl0.sequencer: Cache miss at [0x13a7720, line 0x13a7700]
160564888000: system.ruby.cp_cntrl0.sequencer: Cache miss at [0x38a68, line 0x38a40]
160564890000: system.ruby.cp_cntrl0.sequencer: Cache miss at [0x3fa8740, line 0x3fa8740]
160564892000: system.ruby.cp_cntrl0.sequencer: Cache miss at [0x10df9c8, line 0x10df9c0]
160564894000: system.ruby.cp_cntrl0.sequencer: Cache miss at [0x3fa8748, line 0x3fa8740]
160564896000: system.ruby.cp_cntrl0.sequencer: Cache miss at [0x3fa8748, line 0x3fa8740]
160564898000: system.ruby.cp_cntrl0.sequencer: Cache miss at [0x3fa8740, line 0x3fa8740]
160564900000: system.ruby.cp_cntrl0.sequencer: Cache miss at [0x38a68, line 0x38a40]
160564902000: system.ruby.cp_cntrl0.sequencer: Cache miss at [0xfaa3f0, line 0xfaa3c0]
160564904000: system.ruby.cp_cntrl0.sequencer: Cache miss at [0xfaa3f0, line 0xfaa3c0]
160564906000: system.ruby.cp_cntrl0.sequencer: Cache miss at [0xfaa3f8, line 0xfaa3c0]
160564908000: system.ruby.cp_cntrl0.sequencer: Cache miss at [0xf90c20, line 0xf90c00]
160564910000: system.ruby.cp_cntrl0.sequencer: Cache miss at [0xc62610, line 0xc62600]
160564912000: system.ruby.cp_cntrl0.sequencer: Cache miss at [0x13a7710, line 0x13a7700]
160564914000: system.ruby.cp_cntrl0.sequencer: Cache miss at [0x13a7710, line 0x13a7700]
160564916000: system.ruby.cp_cntrl0.sequencer: Cache miss at [0x13a7718, line 0x13a7700]
160564918000: system.ruby.cp_cntrl0.sequencer: Cache miss at [0x13a7718, line 0x13a7700]
160564920000: system.ruby.cp_cntrl0.sequencer: Cache miss at [0x13a7718, line 0x13a7700]
160564922000: system.ruby.cp_cntrl0.sequencer: Cache miss at [0x13a7720, line 0x13a7700]
160564924000: system.ruby.cp_cntrl0.sequencer: Cache miss at [0x13a7720, line 0x13a7700]
160564926000: system.ruby.cp_cntrl0.sequencer: Cache miss at [0x13a7720, line 0x13a7700]
160564928000: system.ruby.cp_cntrl0.sequencer: Cache miss at [0x38a68, line 0x38a40]
160564930000: system.ruby.cp_cntrl0.sequencer: Cache miss at [0x3fa8740, line 0x3fa8740]
160564932000: system.ruby.cp_cntrl0.sequencer: Cache miss at [0x10df9c8, line 0x10df9c0]
160564934000: system.ruby.cp_cntrl0.sequencer: Cache miss at [0x3fa8748, line 0x3fa8740]
160564936000: system.ruby.cp_cntrl0.sequencer: Cache miss at [0x3fa8748, line 0x3fa8740]
160564938000: system.ruby.cp_cntrl0.sequencer: Cache miss at [0x3fa8740, line 0x3fa8740]
160564940000: system.ruby.cp_cntrl0.sequencer: Cache miss at [0x38a68, line 0x38a40]
160564942000: system.ruby.cp_cntrl0.sequencer: Cache miss at [0xfaa3f0, line 0xfaa3c0]
160564944000: system.ruby.cp_cntrl0.sequencer: Cache miss at [0xfaa3f0, line 0xfaa3c0]
160564946000: system.ruby.cp_cntrl0.sequencer: Cache miss at [0xfaa3f8, line 0xfaa3c0]
160564948000: system.ruby.cp_cntrl0.sequencer: Cache miss at [0xf90c20, line 0xf90c00]
160564950000: system.ruby.cp_cntrl0.sequencer: Cache miss at [0xc62610, line 0xc62600]
160564952000: system.ruby.cp_cntrl0.sequencer: Cache miss at [0x13a7710, line 0x13a7700]
160564954000: system.ruby.cp_cntrl0.sequencer: Cache miss at [0x13a7710, line 0x13a7700]
160564956000: system.ruby.cp_cntrl0.sequencer: Cache miss at [0x13a7718, line 0x13a7700]
160564958000: system.ruby.cp_cntrl0.sequencer: Cache miss at [0x13a7718, line 0x13a7700]
160564960000: system.ruby.cp_cntrl0.sequencer: Cache miss at [0x13a7718, line 0x13a7700]
160564962000: system.ruby.cp_cntrl1.sequencer: Cache hit at [0x10d5bc8, line 0x10d5bc0]
160564962000: system.ruby.cp_cntrl0.sequencer: Cache miss at [0x13a7720, line 0x13a7700]
160564964000: system.ruby.cp_cntrl0.sequencer: Cache miss at [0x13a7720, line 0x13a7700]
160564964000: system.ruby.cp_cntrl1.sequencer: Cache miss at [0x138bf90, line 0x138bf80]
160564966000: system.ruby.cp_cntrl1.sequencer: Cache miss at [0x138bf90, line 0x138bf80]
160564966000: system.ruby.cp_cntrl0.sequencer: Cache miss at [0x13a7720, line 0x13a7700]
160564968000: system.ruby.cp_cntrl0.sequencer: Cache miss at [0x38a68, line 0x38a40]
160564968000: system.ruby.cp_cntrl1.sequencer: Cache miss at [0x138bf98, line 0x138bf80]
160564970000: system.ruby.cp_cntrl1.sequencer: Cache miss at [0x10d5bd0, line 0x10d5bc0]
160564970000: system.ruby.cp_cntrl0.sequencer: Cache miss at [0x3fa8740, line 0x3fa8740]
160564972000: system.ruby.cp_cntrl0.sequencer: Cache miss at [0x10df9c8, line 0x10df9c0]
160564972000: system.ruby.cp_cntrl1.sequencer: Cache miss at [0x138bf98, line 0x138bf80]
160564974000: system.ruby.cp_cntrl1.sequencer: Cache miss at [0x138bf98, line 0x138bf80]
160564974000: system.ruby.cp_cntrl0.sequencer: Cache miss at [0x3fa8748, line 0x3fa8740]
160564976000: system.ruby.cp_cntrl0.sequencer: Cache miss at [0x3fa8748, line 0x3fa8740]
160564976000: system.ruby.cp_cntrl1.sequencer: Cache miss at [0x138bfa0, line 0x138bf80]
160564978000: system.ruby.cp_cntrl0.sequencer: Cache miss at [0x3fa8740, line 0x3fa8740]
160564980000: system.ruby.cp_cntrl0.sequencer: Cache miss at [0x38a68, line 0x38a40]
160564982000: system.ruby.cp_cntrl0.sequencer: Cache miss at [0xfaa3f0, line 0xfaa3c0]
160564984000: system.ruby.cp_cntrl0.sequencer: Cache miss at [0xfaa3f0, line 0xfaa3c0]
160564986000: system.ruby.cp_cntrl0.sequencer: Cache miss at [0xfaa3f8, line 0xfaa3c0]
160564988000: system.ruby.cp_cntrl0.sequencer: Cache miss at [0xf90c20, line 0xf90c00]
160564990000: system.ruby.cp_cntrl0.sequencer: Cache miss at [0xc62610, line 0xc62600]
160564992000: system.ruby.cp_cntrl0.sequencer: Cache miss at [0x13a7710, line 0x13a7700]
160564994000: system.ruby.cp_cntrl0.sequencer: Cache miss at [0x13a7710, line 0x13a7700]
160564996000: system.ruby.cp_cntrl0.sequencer: Cache miss at [0x13a7718, line 0x13a7700]
160564998000: system.ruby.cp_cntrl0.sequencer: Cache miss at [0x13a7718, line 0x13a7700]
160565000000: system.ruby.cp_cntrl0.sequencer: Cache miss at [0x13a7718, line 0x13a7700]
160565002000: system.ruby.cp_cntrl0.sequencer: Cache miss at [0x13a7720, line 0x13a7700]
160565004000: system.ruby.cp_cntrl0.sequencer: Cache miss at [0x13a7720, line 0x13a7700]
160565006000: system.ruby.cp_cntrl0.sequencer: Cache miss at [0x13a7720, line 0x13a7700]
160565008000: system.ruby.cp_cntrl0.sequencer: Cache miss at [0x38a68, line 0x38a40]
160565010000: system.ruby.cp_cntrl0.sequencer: Cache miss at [0x3fa8740, line 0x3fa8740]
160565012000: system.ruby.cp_cntrl0.sequencer: Cache miss at [0x10df9c8, line 0x10df9c0]
160565014000: system.ruby.cp_cntrl0.sequencer: Cache miss at [0x3fa8748, line 0x3fa8740]
160565016000: system.ruby.cp_cntrl0.sequencer: Cache miss at [0x3fa8748, line 0x3fa8740]
160565018000: system.ruby.cp_cntrl0.sequencer: Cache miss at [0x3fa8740, line 0x3fa8740]
160565020000: system.ruby.cp_cntrl0.sequencer: Cache miss at [0x38a68, line 0x38a40]
160565022000: system.ruby.cp_cntrl0.sequencer: Cache miss at [0xfaa3f0, line 0xfaa3c0]
160565024000: system.ruby.cp_cntrl0.sequencer: Cache miss at [0xfaa3f0, line 0xfaa3c0]
160565026000: system.ruby.cp_cntrl0.sequencer: Cache miss at [0xfaa3f8, line 0xfaa3c0]
160565028000: system.ruby.cp_cntrl0.sequencer: Cache miss at [0xf90c20, line 0xf90c00]
160565030000: system.ruby.cp_cntrl0.sequencer: Cache miss at [0xc62610, line 0xc62600]
160565032000: system.ruby.cp_cntrl0.sequencer: Cache miss at [0x13a7710, line 0x13a7700]
160565034000: system.ruby.cp_cntrl0.sequencer: Cache miss at [0x13a7710, line 0x13a7700]
160565036000: system.ruby.cp_cntrl0.sequencer: Cache miss at [0x13a7718, line 0x13a7700]
160565038000: system.ruby.cp_cntrl0.sequencer: Cache miss at [0x13a7718, line 0x13a7700]
160565040000: system.ruby.cp_cntrl0.sequencer: Cache miss at [0x13a7718, line 0x13a7700]
160565042000: system.ruby.cp_cntrl0.sequencer: Cache miss at [0x13a7720, line 0x13a7700]
160565044000: system.ruby.cp_cntrl0.sequencer: Cache miss at [0x13a7720, line 0x13a7700]
160565046000: system.ruby.cp_cntrl0.sequencer: Cache miss at [0x13a7720, line 0x13a7700]
160565048000: system.ruby.cp_cntrl0.sequencer: Cache miss at [0x38a68, line 0x38a40]
160565050000: system.ruby.cp_cntrl0.sequencer: Cache miss at [0x3fa8740, line 0x3fa8740]
160565052000: system.ruby.cp_cntrl0.sequencer: Cache miss at [0x10df9c8, line 0x10df9c0]
160565054000: system.ruby.cp_cntrl0.sequencer: Cache miss at [0x3fa8748, line 0x3fa8740]
160565056000: system.ruby.cp_cntrl0.sequencer: Cache miss at [0x3fa8748, line 0x3fa8740]
160565058000: system.ruby.cp_cntrl0.sequencer: Cache miss at [0x3fa8740, line 0x3fa8740]
160565060000: system.ruby.cp_cntrl0.sequencer: Cache miss at [0x38a68, line 0x38a40]
160565062000: system.ruby.cp_cntrl0.sequencer: Cache miss at [0xfaa3f0, line 0xfaa3c0]
160565064000: system.ruby.cp_cntrl0.sequencer: Cache miss at [0xfaa3f0, line 0xfaa3c0]
160565066000: system.ruby.cp_cntrl0.sequencer: Cache miss at [0xfaa3f8, line 0xfaa3c0]
160565068000: system.ruby.cp_cntrl0.sequencer: Cache miss at [0xf90c20, line 0xf90c00]
160565070000: system.ruby.cp_cntrl0.sequencer: Cache miss at [0xc62610, line 0xc62600]
160565072000: system.ruby.cp_cntrl0.sequencer: Cache miss at [0x13a7710, line 0x13a7700]
160565074000: system.ruby.cp_cntrl0.sequencer: Cache miss at [0x13a7710, line 0x13a7700]
160565076000: system.ruby.cp_cntrl0.sequencer: Cache miss at [0x13a7718, line 0x13a7700]
160565078000: system.ruby.cp_cntrl0.sequencer: Cache miss at [0x13a7718, line 0x13a7700]
160565080000: system.ruby.cp_cntrl0.sequencer: Cache miss at [0x13a7718, line 0x13a7700]
160565082000: system.ruby.cp_cntrl0.sequencer: Cache miss at [0x13a7720, line 0x13a7700]
160565084000: system.ruby.cp_cntrl0.sequencer: Cache miss at [0x13a7720, line 0x13a7700]
160565086000: system.ruby.cp_cntrl0.sequencer: Cache miss at [0x13a7720, line 0x13a7700]
160565088000: system.ruby.cp_cntrl0.sequencer: Cache miss at [0x38a68, line 0x38a40]
160565090000: system.ruby.cp_cntrl0.sequencer: Cache miss at [0x3fa8740, line 0x3fa8740]
160565092000: system.ruby.cp_cntrl0.sequencer: Cache miss at [0x10df9c8, line 0x10df9c0]
160565094000: system.ruby.cp_cntrl0.sequencer: Cache miss at [0x3fa8748, line 0x3fa8740]
160565096000: system.ruby.cp_cntrl0.sequencer: Cache miss at [0x3fa8748, line 0x3fa8740]
160565098000: system.ruby.cp_cntrl0.sequencer: Cache miss at [0x3fa8740, line 0x3fa8740]
160565100000: system.ruby.cp_cntrl0.sequencer: Cache miss at [0x38a68, line 0x38a40]
160565102000: system.ruby.cp_cntrl0.sequencer: Cache miss at [0xfaa3f0, line 0xfaa3c0]
160565104000: system.ruby.cp_cntrl0.sequencer: Cache miss at [0xfaa3f0, line 0xfaa3c0]
160565106000: system.ruby.cp_cntrl0.sequencer: Cache miss at [0xfaa3f8, line 0xfaa3c0]
160565108000: system.ruby.cp_cntrl0.sequencer: Cache miss at [0xf90c20, line 0xf90c00]
160565110000: system.ruby.cp_cntrl0.sequencer: Cache miss at [0xc62610, line 0xc62600]
160565112000: system.ruby.cp_cntrl0.sequencer: Cache miss at [0x13a7710, line 0x13a7700]
160565114000: system.ruby.cp_cntrl0.sequencer: Cache miss at [0x13a7710, line 0x13a7700]
160565116000: system.ruby.cp_cntrl0.sequencer: Cache miss at [0x13a7718, line 0x13a7700]
160565118000: system.ruby.cp_cntrl0.sequencer: Cache miss at [0x13a7718, line 0x13a7700]
160565120000: system.ruby.cp_cntrl0.sequencer: Cache miss at [0x13a7718, line 0x13a7700]
160565122000: system.ruby.cp_cntrl0.sequencer: Cache miss at [0x13a7720, line 0x13a7700]
160565124000: system.ruby.cp_cntrl0.sequencer: Cache miss at [0x13a7720, line 0x13a7700]
160565126000: system.ruby.cp_cntrl0.sequencer: Cache miss at [0x13a7720, line 0x13a7700]
160565128000: system.ruby.cp_cntrl0.sequencer: Cache miss at [0x38a68, line 0x38a40]
160565130000: system.ruby.cp_cntrl0.sequencer: Cache miss at [0x3fa8740, line 0x3fa8740]
160565132000: system.ruby.cp_cntrl0.sequencer: Cache miss at [0x10df9c8, line 0x10df9c0]
160565134000: system.ruby.cp_cntrl0.sequencer: Cache miss at [0x3fa8748, line 0x3fa8740]
160565136000: system.ruby.cp_cntrl0.sequencer: Cache miss at [0x3fa8748, line 0x3fa8740]
160565138000: system.ruby.cp_cntrl0.sequencer: Cache miss at [0x3fa8740, line 0x3fa8740]
160565140000: system.ruby.cp_cntrl0.sequencer: Cache miss at [0x38a68, line 0x38a40]
160565142000: system.ruby.cp_cntrl0.sequencer: Cache miss at [0xfaa3f0, line 0xfaa3c0]
160565144000: system.ruby.cp_cntrl0.sequencer: Cache miss at [0xfaa3f0, line 0xfaa3c0]
160565146000: system.ruby.cp_cntrl0.sequencer: Cache miss at [0xfaa3f8, line 0xfaa3c0]
160565148000: system.ruby.cp_cntrl0.sequencer: Cache miss at [0xf90c20, line 0xf90c00]
160565150000: system.ruby.cp_cntrl0.sequencer: Cache miss at [0xc62610, line 0xc62600]
160565152000: system.ruby.cp_cntrl0.sequencer: Cache miss at [0x13a7710, line 0x13a7700]
160565154000: system.ruby.cp_cntrl0.sequencer: Cache miss at [0x13a7710, line 0x13a7700]
160565156000: system.ruby.cp_cntrl0.sequencer: Cache miss at [0x13a7718, line 0x13a7700]
160565158000: system.ruby.cp_cntrl0.sequencer: Cache miss at [0x13a7718, line 0x13a7700]
160565160000: system.ruby.cp_cntrl0.sequencer: Cache miss at [0x13a7718, line 0x13a7700]
160565162000: system.ruby.cp_cntrl0.sequencer: Cache miss at [0x13a7720, line 0x13a7700]
160565164000: system.ruby.cp_cntrl0.sequencer: Cache miss at [0x13a7720, line 0x13a7700]
160565166000: system.ruby.cp_cntrl0.sequencer: Cache miss at [0x13a7720, line 0x13a7700]
160565168000: system.ruby.cp_cntrl0.sequencer: Cache miss at [0x38a68, line 0x38a40]
160565170000: system.ruby.cp_cntrl0.sequencer: Cache miss at [0x3fa8740, line 0x3fa8740]
160565172000: system.ruby.cp_cntrl0.sequencer: Cache miss at [0x10df9c8, line 0x10df9c0]
160565174000: system.ruby.cp_cntrl0.sequencer: Cache miss at [0x3fa8748, line 0x3fa8740]
160565176000: system.ruby.cp_cntrl0.sequencer: Cache miss at [0x3fa8748, line 0x3fa8740]
160565178000: system.ruby.cp_cntrl0.sequencer: Cache miss at [0x3fa8740, line 0x3fa8740]
160565180000: system.ruby.cp_cntrl0.sequencer: Cache miss at [0x38a68, line 0x38a40]
160565182000: system.ruby.cp_cntrl0.sequencer: Cache miss at [0xfaa3f0, line 0xfaa3c0]
160565184000: system.ruby.cp_cntrl0.sequencer: Cache miss at [0xfaa3f0, line 0xfaa3c0]
160565186000: system.ruby.cp_cntrl0.sequencer: Cache miss at [0xfaa3f8, line 0xfaa3c0]
160565188000: system.ruby.cp_cntrl0.sequencer: Cache miss at [0xf90c20, line 0xf90c00]
160565190000: system.ruby.cp_cntrl0.sequencer: Cache miss at [0xc62610, line 0xc62600]
160565192000: system.ruby.cp_cntrl0.sequencer: Cache miss at [0x13a7710, line 0x13a7700]
160565194000: system.ruby.cp_cntrl0.sequencer: Cache miss at [0x13a7710, line 0x13a7700]
160565196000: system.ruby.cp_cntrl0.sequencer: Cache miss at [0x13a7718, line 0x13a7700]
160565198000: system.ruby.cp_cntrl0.sequencer: Cache miss at [0x13a7718, line 0x13a7700]
160565200000: system.ruby.cp_cntrl0.sequencer: Cache miss at [0x13a7718, line 0x13a7700]
160565202000: system.ruby.cp_cntrl0.sequencer: Cache miss at [0x13a7720, line 0x13a7700]
160565204000: system.ruby.cp_cntrl0.sequencer: Cache miss at [0x13a7720, line 0x13a7700]
160565206000: system.ruby.cp_cntrl0.sequencer: Cache miss at [0x13a7720, line 0x13a7700]
160565208000: system.ruby.cp_cntrl0.sequencer: Cache miss at [0x38a68, line 0x38a40]
160565210000: system.ruby.cp_cntrl0.sequencer: Cache miss at [0x3fa8740, line 0x3fa8740]
160565212000: system.ruby.cp_cntrl0.sequencer: Cache miss at [0x10df9c8, line 0x10df9c0]
160565214000: system.ruby.cp_cntrl0.sequencer: Cache miss at [0x3fa8748, line 0x3fa8740]
160565216000: system.ruby.cp_cntrl0.sequencer: Cache miss at [0x3fa8748, line 0x3fa8740]
160565218000: system.ruby.cp_cntrl0.sequencer: Cache miss at [0x3fa8740, line 0x3fa8740]
160565220000: system.ruby.cp_cntrl0.sequencer: Cache miss at [0x38a68, line 0x38a40]
160565222000: system.ruby.cp_cntrl0.sequencer: Cache miss at [0xfaa3f0, line 0xfaa3c0]
160565224000: system.ruby.cp_cntrl0.sequencer: Cache miss at [0xfaa3f0, line 0xfaa3c0]
160565226000: system.ruby.cp_cntrl0.sequencer: Cache miss at [0xfaa3f8, line 0xfaa3c0]
160565228000: system.ruby.cp_cntrl0.sequencer: Cache miss at [0xf90c20, line 0xf90c00]
160565230000: system.ruby.cp_cntrl0.sequencer: Cache miss at [0xc62610, line 0xc62600]
160565232000: system.ruby.cp_cntrl0.sequencer: Cache miss at [0x13a7710, line 0x13a7700]
160565234000: system.ruby.cp_cntrl0.sequencer: Cache miss at [0x13a7710, line 0x13a7700]
160565236000: system.ruby.cp_cntrl0.sequencer: Cache miss at [0x13a7718, line 0x13a7700]
160565238000: system.ruby.cp_cntrl0.sequencer: Cache miss at [0x13a7718, line 0x13a7700]
160565240000: system.ruby.cp_cntrl0.sequencer: Cache miss at [0x13a7718, line 0x13a7700]
160565242000: system.ruby.cp_cntrl0.sequencer: Cache miss at [0x13a7720, line 0x13a7700]
160565244000: system.ruby.cp_cntrl0.sequencer: Cache miss at [0x13a7720, line 0x13a7700]
160565246000: system.ruby.cp_cntrl0.sequencer: Cache miss at [0x13a7720, line 0x13a7700]
160565248000: system.ruby.cp_cntrl0.sequencer: Cache miss at [0x38a68, line 0x38a40]
160565250000: system.ruby.cp_cntrl0.sequencer: Cache miss at [0x3fa8740, line 0x3fa8740]
160565252000: system.ruby.cp_cntrl0.sequencer: Cache miss at [0x10df9c8, line 0x10df9c0]
160565254000: system.ruby.cp_cntrl0.sequencer: Cache miss at [0x3fa8748, line 0x3fa8740]
160565256000: system.ruby.cp_cntrl0.sequencer: Cache miss at [0x3fa8748, line 0x3fa8740]
160565258000: system.ruby.cp_cntrl0.sequencer: Cache miss at [0x3fa8740, line 0x3fa8740]
160565260000: system.ruby.cp_cntrl0.sequencer: Cache miss at [0x38a68, line 0x38a40]
160565262000: system.ruby.cp_cntrl0.sequencer: Cache miss at [0xfaa3f0, line 0xfaa3c0]
160565264000: system.ruby.cp_cntrl0.sequencer: Cache miss at [0xfaa3f0, line 0xfaa3c0]
160565266000: system.ruby.cp_cntrl0.sequencer: Cache miss at [0xfaa3f8, line 0xfaa3c0]
160565268000: system.ruby.cp_cntrl0.sequencer: Cache miss at [0xf90c20, line 0xf90c00]
160565270000: system.ruby.cp_cntrl0.sequencer: Cache miss at [0xc62610, line 0xc62600]
160565272000: system.ruby.cp_cntrl0.sequencer: Cache miss at [0x13a7710, line 0x13a7700]
160565274000: system.ruby.cp_cntrl0.sequencer: Cache miss at [0x13a7710, line 0x13a7700]
160565276000: system.ruby.cp_cntrl0.sequencer: Cache miss at [0x13a7718, line 0x13a7700]
160565278000: system.ruby.cp_cntrl0.sequencer: Cache miss at [0x13a7718, line 0x13a7700]
160565280000: system.ruby.cp_cntrl0.sequencer: Cache miss at [0x13a7718, line 0x13a7700]
160565282000: system.ruby.cp_cntrl0.sequencer: Cache miss at [0x13a7720, line 0x13a7700]
160565284000: system.ruby.cp_cntrl0.sequencer: Cache miss at [0x13a7720, line 0x13a7700]
160565286000: system.ruby.cp_cntrl0.sequencer: Cache miss at [0x13a7720, line 0x13a7700]
160565288000: system.ruby.cp_cntrl0.sequencer: Cache miss at [0x38a68, line 0x38a40]
160565290000: system.ruby.cp_cntrl0.sequencer: Cache miss at [0x3fa8740, line 0x3fa8740]
160565292000: system.ruby.cp_cntrl0.sequencer: Cache miss at [0x10df9c8, line 0x10df9c0]
160565294000: system.ruby.cp_cntrl0.sequencer: Cache miss at [0x3fa8748, line 0x3fa8740]
160565295000: system.ruby.cp_cntrl1.sequencer: Cache hit at [0x10d9c28, line 0x10d9c00]
160565296000: system.ruby.cp_cntrl0.sequencer: Cache miss at [0x3fa8748, line 0x3fa8740]
160565297000: system.ruby.cp_cntrl1.sequencer: Cache miss at [0x138bfa0, line 0x138bf80]
160565298000: system.ruby.cp_cntrl0.sequencer: Cache miss at [0x3fa8740, line 0x3fa8740]
160565299000: system.ruby.cp_cntrl1.sequencer: Cache miss at [0x10d5bc8, line 0x10d5bc0]
160565300000: system.ruby.cp_cntrl0.sequencer: Cache miss at [0x38a68, line 0x38a40]
160565301000: system.ruby.cp_cntrl1.sequencer: Cache miss at [0x138bfa0, line 0x138bf80]
160565302000: system.ruby.cp_cntrl0.sequencer: Cache miss at [0xfaa3f0, line 0xfaa3c0]
160565303000: system.ruby.cp_cntrl1.sequencer: Cache miss at [0x138bfa8, line 0x138bf80]
160565304000: system.ruby.cp_cntrl0.sequencer: Cache miss at [0xfaa3f0, line 0xfaa3c0]
160565305000: system.ruby.cp_cntrl1.sequencer: Cache miss at [0x138bfa8, line 0x138bf80]
160565306000: system.ruby.cp_cntrl0.sequencer: Cache miss at [0xfaa3f8, line 0xfaa3c0]
160565307000: system.ruby.cp_cntrl1.sequencer: Cache miss at [0x138bfa8, line 0x138bf80]
160565308000: system.ruby.cp_cntrl0.sequencer: Cache miss at [0xf90c20, line 0xf90c00]
160565309000: system.ruby.cp_cntrl1.sequencer: Cache miss at [0x138bfb0, line 0x138bf80]
160565310000: system.ruby.cp_cntrl0.sequencer: Cache miss at [0xc62610, line 0xc62600]
160565311000: system.ruby.cp_cntrl1.sequencer: Cache miss at [0x138bfb0, line 0x138bf80]
160565312000: system.ruby.cp_cntrl0.sequencer: Cache miss at [0x13a7710, line 0x13a7700]
160565313000: system.ruby.cp_cntrl1.sequencer: Cache miss at [0x138bfb0, line 0x138bf80]
160565314000: system.ruby.cp_cntrl0.sequencer: Cache miss at [0x13a7710, line 0x13a7700]
160565315000: system.ruby.cp_cntrl1.sequencer: Cache miss at [0x138bfb8, line 0x138bf80]
160565316000: system.ruby.cp_cntrl0.sequencer: Cache miss at [0x13a7718, line 0x13a7700]
160565317000: system.ruby.cp_cntrl1.sequencer: Cache miss at [0x138bfb8, line 0x138bf80]
160565318000: system.ruby.cp_cntrl0.sequencer: Cache miss at [0x13a7718, line 0x13a7700]
160565319000: system.ruby.cp_cntrl1.sequencer: Cache miss at [0x138bfc0, line 0x138bfc0]
160565320000: system.ruby.cp_cntrl0.sequencer: Cache miss at [0x13a7718, line 0x13a7700]
160565321000: system.ruby.cp_cntrl1.sequencer: Cache miss at [0x138bfc0, line 0x138bfc0]
160565322000: system.ruby.cp_cntrl0.sequencer: Cache miss at [0x13a7720, line 0x13a7700]
160565324000: system.ruby.cp_cntrl0.sequencer: Cache miss at [0x13a7720, line 0x13a7700]
160565326000: system.ruby.cp_cntrl0.sequencer: Cache miss at [0x13a7720, line 0x13a7700]
160565328000: system.ruby.cp_cntrl0.sequencer: Cache miss at [0x38a68, line 0x38a40]
160565330000: system.ruby.cp_cntrl0.sequencer: Cache miss at [0x3fa8740, line 0x3fa8740]
160565332000: system.ruby.cp_cntrl0.sequencer: Cache miss at [0x10df9c8, line 0x10df9c0]
160565334000: system.ruby.cp_cntrl0.sequencer: Cache miss at [0x3fa8748, line 0x3fa8740]
160565336000: system.ruby.cp_cntrl0.sequencer: Cache miss at [0x3fa8748, line 0x3fa8740]
160565338000: system.ruby.cp_cntrl0.sequencer: Cache miss at [0x3fa8740, line 0x3fa8740]
160565340000: system.ruby.cp_cntrl0.sequencer: Cache miss at [0x38a68, line 0x38a40]
160565342000: system.ruby.cp_cntrl0.sequencer: Cache miss at [0xfaa3f0, line 0xfaa3c0]
160565344000: system.ruby.cp_cntrl0.sequencer: Cache miss at [0xfaa3f0, line 0xfaa3c0]
160565346000: system.ruby.cp_cntrl0.sequencer: Cache miss at [0xfaa3f8, line 0xfaa3c0]
160565348000: system.ruby.cp_cntrl0.sequencer: Cache miss at [0xf90c20, line 0xf90c00]
160565350000: system.ruby.cp_cntrl0.sequencer: Cache miss at [0xc62610, line 0xc62600]
160565352000: system.ruby.cp_cntrl0.sequencer: Cache miss at [0x13a7710, line 0x13a7700]
160565354000: system.ruby.cp_cntrl0.sequencer: Cache miss at [0x13a7710, line 0x13a7700]
160565356000: system.ruby.cp_cntrl0.sequencer: Cache miss at [0x13a7718, line 0x13a7700]
160565358000: system.ruby.cp_cntrl0.sequencer: Cache miss at [0x13a7718, line 0x13a7700]
160565360000: system.ruby.cp_cntrl0.sequencer: Cache miss at [0x13a7718, line 0x13a7700]
160565362000: system.ruby.cp_cntrl0.sequencer: Cache miss at [0x13a7720, line 0x13a7700]
160565364000: system.ruby.cp_cntrl0.sequencer: Cache miss at [0x13a7720, line 0x13a7700]
160565366000: system.ruby.cp_cntrl0.sequencer: Cache miss at [0x13a7720, line 0x13a7700]
160565368000: system.ruby.cp_cntrl0.sequencer: Cache miss at [0x38a68, line 0x38a40]
160565370000: system.ruby.cp_cntrl0.sequencer: Cache miss at [0x3fa8740, line 0x3fa8740]
160565372000: system.ruby.cp_cntrl0.sequencer: Cache miss at [0x10df9c8, line 0x10df9c0]
160565374000: system.ruby.cp_cntrl0.sequencer: Cache miss at [0x3fa8748, line 0x3fa8740]
160565375010: system.ruby.sqc_cntrl0.sequencer: Cache hit at [0x401d000, line 0x401d000]
160565376000: system.ruby.cp_cntrl0.sequencer: Cache miss at [0x3fa8748, line 0x3fa8740]
160565378000: system.ruby.cp_cntrl0.sequencer: Cache miss at [0x3fa8740, line 0x3fa8740]
160565380000: system.ruby.cp_cntrl0.sequencer: Cache miss at [0x38a68, line 0x38a40]
160565382000: system.ruby.cp_cntrl0.sequencer: Cache miss at [0xfaa3f0, line 0xfaa3c0]
160565384000: system.ruby.cp_cntrl0.sequencer: Cache miss at [0xfaa3f0, line 0xfaa3c0]
160565386000: system.ruby.cp_cntrl0.sequencer: Cache miss at [0xfaa3f8, line 0xfaa3c0]
160565388000: system.ruby.cp_cntrl0.sequencer: Cache miss at [0xf90c20, line 0xf90c00]
160565390000: system.ruby.cp_cntrl0.sequencer: Cache miss at [0xc62610, line 0xc62600]
160565392000: system.ruby.cp_cntrl0.sequencer: Cache miss at [0x13a7710, line 0x13a7700]
160565394000: system.ruby.cp_cntrl0.sequencer: Cache miss at [0x13a7710, line 0x13a7700]
160565396000: system.ruby.cp_cntrl0.sequencer: Cache miss at [0x13a7718, line 0x13a7700]
160565398000: system.ruby.cp_cntrl0.sequencer: Cache miss at [0x13a7718, line 0x13a7700]
160565400000: system.ruby.cp_cntrl0.sequencer: Cache miss at [0x13a7718, line 0x13a7700]
160565402000: system.ruby.cp_cntrl0.sequencer: Cache miss at [0x13a7720, line 0x13a7700]
160565404000: system.ruby.cp_cntrl0.sequencer: Cache miss at [0x13a7720, line 0x13a7700]
160565406000: system.ruby.cp_cntrl0.sequencer: Cache miss at [0x13a7720, line 0x13a7700]
160565408000: system.ruby.cp_cntrl0.sequencer: Cache miss at [0x38a68, line 0x38a40]
160565410000: system.ruby.cp_cntrl0.sequencer: Cache miss at [0x3fa8740, line 0x3fa8740]
160565412000: system.ruby.cp_cntrl0.sequencer: Cache miss at [0x10df9c8, line 0x10df9c0]
160565414000: system.ruby.cp_cntrl0.sequencer: Cache miss at [0x3fa8748, line 0x3fa8740]
160565416000: system.ruby.cp_cntrl0.sequencer: Cache miss at [0x3fa8748, line 0x3fa8740]
160565418000: system.ruby.cp_cntrl0.sequencer: Cache miss at [0x3fa8740, line 0x3fa8740]
160565420000: system.ruby.cp_cntrl0.sequencer: Cache miss at [0x38a68, line 0x38a40]
160565422000: system.ruby.cp_cntrl0.sequencer: Cache miss at [0xfaa3f0, line 0xfaa3c0]
160565424000: system.ruby.cp_cntrl0.sequencer: Cache miss at [0xfaa3f0, line 0xfaa3c0]
160565426000: system.ruby.cp_cntrl0.sequencer: Cache miss at [0xfaa3f8, line 0xfaa3c0]
160565428000: system.ruby.cp_cntrl0.sequencer: Cache miss at [0xf90c20, line 0xf90c00]
160565430000: system.ruby.cp_cntrl0.sequencer: Cache miss at [0xc62610, line 0xc62600]
160565432000: system.ruby.cp_cntrl0.sequencer: Cache miss at [0x13a7710, line 0x13a7700]
160565434000: system.ruby.cp_cntrl0.sequencer: Cache miss at [0x13a7710, line 0x13a7700]
160565436000: system.ruby.cp_cntrl0.sequencer: Cache miss at [0x13a7718, line 0x13a7700]
160565438000: system.ruby.cp_cntrl0.sequencer: Cache miss at [0x13a7718, line 0x13a7700]
160565440000: system.ruby.cp_cntrl0.sequencer: Cache miss at [0x13a7718, line 0x13a7700]
160565442000: system.ruby.cp_cntrl0.sequencer: Cache miss at [0x13a7720, line 0x13a7700]
160565444000: system.ruby.cp_cntrl0.sequencer: Cache miss at [0x13a7720, line 0x13a7700]
160565446000: system.ruby.cp_cntrl0.sequencer: Cache miss at [0x13a7720, line 0x13a7700]
160565448000: system.ruby.cp_cntrl0.sequencer: Cache miss at [0x38a68, line 0x38a40]
160565450000: system.ruby.cp_cntrl0.sequencer: Cache miss at [0x3fa8740, line 0x3fa8740]
160565452000: system.ruby.cp_cntrl0.sequencer: Cache miss at [0x10df9c8, line 0x10df9c0]
160565454000: system.ruby.cp_cntrl0.sequencer: Cache miss at [0x3fa8748, line 0x3fa8740]
160565456000: system.ruby.cp_cntrl0.sequencer: Cache miss at [0x3fa8748, line 0x3fa8740]
160565458000: system.ruby.cp_cntrl0.sequencer: Cache miss at [0x3fa8740, line 0x3fa8740]
160565460000: system.ruby.cp_cntrl0.sequencer: Cache miss at [0x38a68, line 0x38a40]
160565462000: system.ruby.cp_cntrl0.sequencer: Cache miss at [0xfaa3f0, line 0xfaa3c0]
160565464000: system.ruby.cp_cntrl0.sequencer: Cache miss at [0xfaa3f0, line 0xfaa3c0]
160565466000: system.ruby.cp_cntrl0.sequencer: Cache miss at [0xfaa3f8, line 0xfaa3c0]
160565468000: system.ruby.cp_cntrl0.sequencer: Cache miss at [0xf90c20, line 0xf90c00]
160565470000: system.ruby.cp_cntrl0.sequencer: Cache miss at [0xc62610, line 0xc62600]
160565472000: system.ruby.cp_cntrl0.sequencer: Cache miss at [0x13a7710, line 0x13a7700]
160565474000: system.ruby.cp_cntrl0.sequencer: Cache miss at [0x13a7710, line 0x13a7700]
160565476000: system.ruby.cp_cntrl0.sequencer: Cache miss at [0x13a7718, line 0x13a7700]
160565478000: system.ruby.cp_cntrl0.sequencer: Cache miss at [0x13a7718, line 0x13a7700]
160565480000: system.ruby.cp_cntrl0.sequencer: Cache miss at [0x13a7718, line 0x13a7700]
160565482000: system.ruby.cp_cntrl0.sequencer: Cache miss at [0x13a7720, line 0x13a7700]
160565484000: system.ruby.cp_cntrl0.sequencer: Cache miss at [0x13a7720, line 0x13a7700]
160565486000: system.ruby.cp_cntrl0.sequencer: Cache miss at [0x13a7720, line 0x13a7700]
160565488000: system.ruby.cp_cntrl0.sequencer: Cache miss at [0x38a68, line 0x38a40]
160565490000: system.ruby.cp_cntrl0.sequencer: Cache miss at [0x3fa8740, line 0x3fa8740]
160565492000: system.ruby.cp_cntrl0.sequencer: Cache miss at [0x10df9c8, line 0x10df9c0]
160565494000: system.ruby.cp_cntrl0.sequencer: Cache miss at [0x3fa8748, line 0x3fa8740]
160565496000: system.ruby.cp_cntrl0.sequencer: Cache miss at [0x3fa8748, line 0x3fa8740]
160565498000: system.ruby.cp_cntrl0.sequencer: Cache miss at [0x3fa8740, line 0x3fa8740]
160565500000: system.ruby.cp_cntrl0.sequencer: Cache miss at [0x38a68, line 0x38a40]
160565502000: system.ruby.cp_cntrl0.sequencer: Cache miss at [0xfaa3f0, line 0xfaa3c0]
160565504000: system.ruby.cp_cntrl0.sequencer: Cache miss at [0xfaa3f0, line 0xfaa3c0]
160565506000: system.ruby.cp_cntrl0.sequencer: Cache miss at [0xfaa3f8, line 0xfaa3c0]
160565508000: system.ruby.cp_cntrl0.sequencer: Cache miss at [0xf90c20, line 0xf90c00]
160565510000: system.ruby.cp_cntrl0.sequencer: Cache miss at [0xc62610, line 0xc62600]
160565512000: system.ruby.cp_cntrl0.sequencer: Cache miss at [0x13a7710, line 0x13a7700]
160565514000: system.ruby.cp_cntrl0.sequencer: Cache miss at [0x13a7710, line 0x13a7700]
160565516000: system.ruby.cp_cntrl0.sequencer: Cache miss at [0x13a7718, line 0x13a7700]
160565518000: system.ruby.cp_cntrl0.sequencer: Cache miss at [0x13a7718, line 0x13a7700]
160565520000: system.ruby.cp_cntrl0.sequencer: Cache miss at [0x13a7718, line 0x13a7700]
160565522000: system.ruby.cp_cntrl0.sequencer: Cache miss at [0x13a7720, line 0x13a7700]
160565524000: system.ruby.cp_cntrl0.sequencer: Cache miss at [0x13a7720, line 0x13a7700]
160565526000: system.ruby.cp_cntrl0.sequencer: Cache miss at [0x13a7720, line 0x13a7700]
160565528000: system.ruby.cp_cntrl0.sequencer: Cache miss at [0x38a68, line 0x38a40]
160565530000: system.ruby.cp_cntrl0.sequencer: Cache miss at [0x3fa8740, line 0x3fa8740]
160565532000: system.ruby.cp_cntrl0.sequencer: Cache miss at [0x10df9c8, line 0x10df9c0]
160565534000: system.ruby.cp_cntrl0.sequencer: Cache miss at [0x3fa8748, line 0x3fa8740]
160565536000: system.ruby.cp_cntrl0.sequencer: Cache miss at [0x3fa8748, line 0x3fa8740]
160565538000: system.ruby.cp_cntrl0.sequencer: Cache miss at [0x3fa8740, line 0x3fa8740]
160565540000: system.ruby.cp_cntrl0.sequencer: Cache miss at [0x38a68, line 0x38a40]
160565542000: system.ruby.cp_cntrl0.sequencer: Cache miss at [0xfaa3f0, line 0xfaa3c0]
160565544000: system.ruby.cp_cntrl0.sequencer: Cache miss at [0xfaa3f0, line 0xfaa3c0]
160565546000: system.ruby.cp_cntrl0.sequencer: Cache miss at [0xfaa3f8, line 0xfaa3c0]
160565548000: system.ruby.cp_cntrl0.sequencer: Cache miss at [0xf90c20, line 0xf90c00]
160565550000: system.ruby.cp_cntrl0.sequencer: Cache miss at [0xc62610, line 0xc62600]
160565552000: system.ruby.cp_cntrl0.sequencer: Cache miss at [0x13a7710, line 0x13a7700]
160565554000: system.ruby.cp_cntrl0.sequencer: Cache miss at [0x13a7710, line 0x13a7700]
160565556000: system.ruby.cp_cntrl0.sequencer: Cache miss at [0x13a7718, line 0x13a7700]
160565558000: system.ruby.cp_cntrl0.sequencer: Cache miss at [0x13a7718, line 0x13a7700]
160565560000: system.ruby.cp_cntrl0.sequencer: Cache miss at [0x13a7718, line 0x13a7700]
160565562000: system.ruby.cp_cntrl0.sequencer: Cache miss at [0x13a7720, line 0x13a7700]
160565564000: system.ruby.cp_cntrl0.sequencer: Cache miss at [0x13a7720, line 0x13a7700]
160565566000: system.ruby.cp_cntrl0.sequencer: Cache miss at [0x13a7720, line 0x13a7700]
160565568000: system.ruby.cp_cntrl0.sequencer: Cache miss at [0x38a68, line 0x38a40]
160565570000: system.ruby.cp_cntrl0.sequencer: Cache miss at [0x3fa8740, line 0x3fa8740]
160565572000: system.ruby.cp_cntrl0.sequencer: Cache miss at [0x10df9c8, line 0x10df9c0]
160565574000: system.ruby.cp_cntrl0.sequencer: Cache miss at [0x3fa8748, line 0x3fa8740]
160565576000: system.ruby.cp_cntrl0.sequencer: Cache miss at [0x3fa8748, line 0x3fa8740]
160565578000: system.ruby.cp_cntrl0.sequencer: Cache miss at [0x3fa8740, line 0x3fa8740]
160565580000: system.ruby.cp_cntrl0.sequencer: Cache miss at [0x38a68, line 0x38a40]
160565582000: system.ruby.cp_cntrl0.sequencer: Cache miss at [0xfaa3f0, line 0xfaa3c0]
160565584000: system.ruby.cp_cntrl0.sequencer: Cache miss at [0xfaa3f0, line 0xfaa3c0]
160565586000: system.ruby.cp_cntrl0.sequencer: Cache miss at [0xfaa3f8, line 0xfaa3c0]
160565588000: system.ruby.cp_cntrl0.sequencer: Cache miss at [0xf90c20, line 0xf90c00]
160565590000: system.ruby.cp_cntrl0.sequencer: Cache miss at [0xc62610, line 0xc62600]
160565592000: system.ruby.cp_cntrl0.sequencer: Cache miss at [0x13a7710, line 0x13a7700]
160565594000: system.ruby.cp_cntrl0.sequencer: Cache miss at [0x13a7710, line 0x13a7700]
160565596000: system.ruby.cp_cntrl0.sequencer: Cache miss at [0x13a7718, line 0x13a7700]
160565598000: system.ruby.cp_cntrl0.sequencer: Cache miss at [0x13a7718, line 0x13a7700]
160565600000: system.ruby.cp_cntrl0.sequencer: Cache miss at [0x13a7718, line 0x13a7700]
160565602000: system.ruby.cp_cntrl0.sequencer: Cache miss at [0x13a7720, line 0x13a7700]
160565604000: system.ruby.cp_cntrl0.sequencer: Cache miss at [0x13a7720, line 0x13a7700]
160565606000: system.ruby.cp_cntrl0.sequencer: Cache miss at [0x13a7720, line 0x13a7700]
160565608000: system.ruby.cp_cntrl0.sequencer: Cache miss at [0x38a68, line 0x38a40]
160565610000: system.ruby.cp_cntrl0.sequencer: Cache miss at [0x3fa8740, line 0x3fa8740]
160565612000: system.ruby.cp_cntrl0.sequencer: Cache miss at [0x10df9c8, line 0x10df9c0]
160565614000: system.ruby.cp_cntrl0.sequencer: Cache miss at [0x3fa8748, line 0x3fa8740]
160565616000: system.ruby.cp_cntrl0.sequencer: Cache miss at [0x3fa8748, line 0x3fa8740]
160565618000: system.ruby.cp_cntrl0.sequencer: Cache miss at [0x3fa8740, line 0x3fa8740]
160565620000: system.ruby.cp_cntrl0.sequencer: Cache miss at [0x38a68, line 0x38a40]
160565622000: system.ruby.cp_cntrl0.sequencer: Cache miss at [0xfaa3f0, line 0xfaa3c0]
160565624000: system.ruby.cp_cntrl0.sequencer: Cache miss at [0xfaa3f0, line 0xfaa3c0]
160565626000: system.ruby.cp_cntrl0.sequencer: Cache miss at [0xfaa3f8, line 0xfaa3c0]
160565628000: system.ruby.cp_cntrl0.sequencer: Cache miss at [0xf90c20, line 0xf90c00]
160565630000: system.ruby.cp_cntrl0.sequencer: Cache miss at [0xc62610, line 0xc62600]
160565632000: system.ruby.cp_cntrl0.sequencer: Cache miss at [0x13a7710, line 0x13a7700]
160565634000: system.ruby.cp_cntrl0.sequencer: Cache miss at [0x13a7710, line 0x13a7700]
160565636000: system.ruby.cp_cntrl0.sequencer: Cache miss at [0x13a7718, line 0x13a7700]
160565638000: system.ruby.cp_cntrl0.sequencer: Cache miss at [0x13a7718, line 0x13a7700]
160565640000: system.ruby.cp_cntrl1.sequencer: Cache hit at [0x10dfb00, line 0x10dfb00]
160565640000: system.ruby.cp_cntrl0.sequencer: Cache miss at [0x13a7718, line 0x13a7700]
160565642000: system.ruby.cp_cntrl0.sequencer: Cache miss at [0x13a7720, line 0x13a7700]
160565642000: system.ruby.cp_cntrl1.sequencer: Cache miss at [0x138bfc0, line 0x138bfc0]
160565644000: system.ruby.cp_cntrl1.sequencer: Cache miss at [0x138bfc8, line 0x138bfc0]
160565644000: system.ruby.cp_cntrl0.sequencer: Cache miss at [0x13a7720, line 0x13a7700]
160565646000: system.ruby.cp_cntrl0.sequencer: Cache miss at [0x13a7720, line 0x13a7700]
160565646000: system.ruby.cp_cntrl1.sequencer: Cache miss at [0x138bfc8, line 0x138bfc0]
160565648000: system.ruby.cp_cntrl0.sequencer: Cache miss at [0x38a68, line 0x38a40]
160565650000: system.ruby.cp_cntrl0.sequencer: Cache miss at [0x3fa8740, line 0x3fa8740]
160565652000: system.ruby.cp_cntrl0.sequencer: Cache miss at [0x10df9c8, line 0x10df9c0]
160565654000: system.ruby.cp_cntrl0.sequencer: Cache miss at [0x3fa8748, line 0x3fa8740]
160565656000: system.ruby.cp_cntrl0.sequencer: Cache miss at [0x3fa8748, line 0x3fa8740]
160565658000: system.ruby.cp_cntrl0.sequencer: Cache miss at [0x3fa8740, line 0x3fa8740]
160565660000: system.ruby.cp_cntrl0.sequencer: Cache miss at [0x38a68, line 0x38a40]
160565662000: system.ruby.cp_cntrl0.sequencer: Cache miss at [0xfaa3f0, line 0xfaa3c0]
160565664000: system.ruby.cp_cntrl0.sequencer: Cache miss at [0xfaa3f0, line 0xfaa3c0]
160565666000: system.ruby.cp_cntrl0.sequencer: Cache miss at [0xfaa3f8, line 0xfaa3c0]
160565668000: system.ruby.cp_cntrl0.sequencer: Cache miss at [0xf90c20, line 0xf90c00]
160565670000: system.ruby.cp_cntrl0.sequencer: Cache miss at [0xc62610, line 0xc62600]
160565672000: system.ruby.cp_cntrl0.sequencer: Cache miss at [0x13a7710, line 0x13a7700]
160565674000: system.ruby.cp_cntrl0.sequencer: Cache miss at [0x13a7710, line 0x13a7700]
160565676000: system.ruby.cp_cntrl0.sequencer: Cache miss at [0x13a7718, line 0x13a7700]
160565678000: system.ruby.cp_cntrl0.sequencer: Cache miss at [0x13a7718, line 0x13a7700]
160565680000: system.ruby.cp_cntrl0.sequencer: Cache miss at [0x13a7718, line 0x13a7700]
160565682000: system.ruby.cp_cntrl0.sequencer: Cache miss at [0x13a7720, line 0x13a7700]
160565684000: system.ruby.cp_cntrl0.sequencer: Cache miss at [0x13a7720, line 0x13a7700]
160565686000: system.ruby.cp_cntrl0.sequencer: Cache miss at [0x13a7720, line 0x13a7700]
160565688000: system.ruby.cp_cntrl0.sequencer: Cache miss at [0x38a68, line 0x38a40]
160565690000: system.ruby.cp_cntrl0.sequencer: Cache miss at [0x3fa8740, line 0x3fa8740]
160565692000: system.ruby.cp_cntrl0.sequencer: Cache miss at [0x10df9c8, line 0x10df9c0]
160565694000: system.ruby.cp_cntrl0.sequencer: Cache miss at [0x3fa8748, line 0x3fa8740]
160565696000: system.ruby.cp_cntrl0.sequencer: Cache miss at [0x3fa8748, line 0x3fa8740]
160565698000: system.ruby.cp_cntrl0.sequencer: Cache miss at [0x3fa8740, line 0x3fa8740]
160565700000: system.ruby.cp_cntrl0.sequencer: Cache miss at [0x38a68, line 0x38a40]
160565702000: system.ruby.cp_cntrl0.sequencer: Cache miss at [0xfaa3f0, line 0xfaa3c0]
160565704000: system.ruby.cp_cntrl0.sequencer: Cache miss at [0xfaa3f0, line 0xfaa3c0]
160565706000: system.ruby.cp_cntrl0.sequencer: Cache miss at [0xfaa3f8, line 0xfaa3c0]
160565708000: system.ruby.cp_cntrl0.sequencer: Cache miss at [0xf90c20, line 0xf90c00]
160565710000: system.ruby.cp_cntrl0.sequencer: Cache miss at [0xc62610, line 0xc62600]
160565712000: system.ruby.cp_cntrl0.sequencer: Cache miss at [0x13a7710, line 0x13a7700]
160565714000: system.ruby.cp_cntrl0.sequencer: Cache miss at [0x13a7710, line 0x13a7700]
160565716000: system.ruby.cp_cntrl0.sequencer: Cache miss at [0x13a7718, line 0x13a7700]
160565718000: system.ruby.cp_cntrl0.sequencer: Cache miss at [0x13a7718, line 0x13a7700]
160565720000: system.ruby.cp_cntrl0.sequencer: Cache miss at [0x13a7718, line 0x13a7700]
160565722000: system.ruby.cp_cntrl0.sequencer: Cache miss at [0x13a7720, line 0x13a7700]
160565724000: system.ruby.cp_cntrl0.sequencer: Cache miss at [0x13a7720, line 0x13a7700]
160565726000: system.ruby.cp_cntrl0.sequencer: Cache miss at [0x13a7720, line 0x13a7700]
160565728000: system.ruby.cp_cntrl0.sequencer: Cache miss at [0x38a68, line 0x38a40]
160565730000: system.ruby.cp_cntrl0.sequencer: Cache miss at [0x3fa8740, line 0x3fa8740]
160565732000: system.ruby.cp_cntrl0.sequencer: Cache miss at [0x10df9c8, line 0x10df9c0]
160565734000: system.ruby.cp_cntrl0.sequencer: Cache miss at [0x3fa8748, line 0x3fa8740]
160565736000: system.ruby.cp_cntrl0.sequencer: Cache miss at [0x3fa8748, line 0x3fa8740]
160565738000: system.ruby.cp_cntrl0.sequencer: Cache miss at [0x3fa8740, line 0x3fa8740]
160565740000: system.ruby.cp_cntrl0.sequencer: Cache miss at [0x38a68, line 0x38a40]
160565742000: system.ruby.cp_cntrl0.sequencer: Cache miss at [0xfaa3f0, line 0xfaa3c0]
160565744000: system.ruby.cp_cntrl0.sequencer: Cache miss at [0xfaa3f0, line 0xfaa3c0]
160565746000: system.ruby.cp_cntrl0.sequencer: Cache miss at [0xfaa3f8, line 0xfaa3c0]
160565748000: system.ruby.cp_cntrl0.sequencer: Cache miss at [0xf90c20, line 0xf90c00]
160565750000: system.ruby.cp_cntrl0.sequencer: Cache miss at [0xc62610, line 0xc62600]
160565752000: system.ruby.cp_cntrl0.sequencer: Cache miss at [0x13a7710, line 0x13a7700]
160565754000: system.ruby.cp_cntrl0.sequencer: Cache miss at [0x13a7710, line 0x13a7700]
160565756000: system.ruby.cp_cntrl0.sequencer: Cache miss at [0x13a7718, line 0x13a7700]
160565758000: system.ruby.cp_cntrl0.sequencer: Cache miss at [0x13a7718, line 0x13a7700]
160565760000: system.ruby.cp_cntrl0.sequencer: Cache miss at [0x13a7718, line 0x13a7700]
160565762000: system.ruby.cp_cntrl0.sequencer: Cache miss at [0x13a7720, line 0x13a7700]
160565764000: system.ruby.cp_cntrl0.sequencer: Cache miss at [0x13a7720, line 0x13a7700]
160565766000: system.ruby.cp_cntrl0.sequencer: Cache miss at [0x13a7720, line 0x13a7700]
160565768000: system.ruby.cp_cntrl0.sequencer: Cache miss at [0x38a68, line 0x38a40]
160565770000: system.ruby.cp_cntrl0.sequencer: Cache miss at [0x3fa8740, line 0x3fa8740]
160565772000: system.ruby.cp_cntrl0.sequencer: Cache miss at [0x10df9c8, line 0x10df9c0]
160565774000: system.ruby.cp_cntrl0.sequencer: Cache miss at [0x3fa8748, line 0x3fa8740]
160565776000: system.ruby.cp_cntrl0.sequencer: Cache miss at [0x3fa8748, line 0x3fa8740]
160565778000: system.ruby.cp_cntrl0.sequencer: Cache miss at [0x3fa8740, line 0x3fa8740]
160565780000: system.ruby.cp_cntrl0.sequencer: Cache miss at [0x38a68, line 0x38a40]
160565782000: system.ruby.cp_cntrl0.sequencer: Cache miss at [0xfaa3f0, line 0xfaa3c0]
160565784000: system.ruby.cp_cntrl0.sequencer: Cache miss at [0xfaa3f0, line 0xfaa3c0]
160565786000: system.ruby.cp_cntrl0.sequencer: Cache miss at [0xfaa3f8, line 0xfaa3c0]
160565788000: system.ruby.cp_cntrl0.sequencer: Cache miss at [0xf90c20, line 0xf90c00]
160565790000: system.ruby.cp_cntrl0.sequencer: Cache miss at [0xc62610, line 0xc62600]
160565792000: system.ruby.cp_cntrl0.sequencer: Cache miss at [0x13a7710, line 0x13a7700]
160565794000: system.ruby.cp_cntrl0.sequencer: Cache miss at [0x13a7710, line 0x13a7700]
160565796000: system.ruby.cp_cntrl0.sequencer: Cache miss at [0x13a7718, line 0x13a7700]
160565798000: system.ruby.cp_cntrl0.sequencer: Cache miss at [0x13a7718, line 0x13a7700]
160565800000: system.ruby.cp_cntrl0.sequencer: Cache miss at [0x13a7718, line 0x13a7700]
160565802000: system.ruby.cp_cntrl0.sequencer: Cache miss at [0x13a7720, line 0x13a7700]
160565804000: system.ruby.cp_cntrl0.sequencer: Cache miss at [0x13a7720, line 0x13a7700]
160565806000: system.ruby.cp_cntrl0.sequencer: Cache miss at [0x13a7720, line 0x13a7700]
160565808000: system.ruby.cp_cntrl0.sequencer: Cache miss at [0x38a68, line 0x38a40]
160565810000: system.ruby.cp_cntrl0.sequencer: Cache miss at [0x3fa8740, line 0x3fa8740]
160565812000: system.ruby.cp_cntrl0.sequencer: Cache miss at [0x10df9c8, line 0x10df9c0]
160565814000: system.ruby.cp_cntrl0.sequencer: Cache miss at [0x3fa8748, line 0x3fa8740]
160565816000: system.ruby.cp_cntrl0.sequencer: Cache miss at [0x3fa8748, line 0x3fa8740]
160565818000: system.ruby.cp_cntrl0.sequencer: Cache miss at [0x3fa8740, line 0x3fa8740]
160565820000: system.ruby.cp_cntrl0.sequencer: Cache miss at [0x38a68, line 0x38a40]
160565822000: system.ruby.cp_cntrl0.sequencer: Cache miss at [0xfaa3f0, line 0xfaa3c0]
160565824000: system.ruby.cp_cntrl0.sequencer: Cache miss at [0xfaa3f0, line 0xfaa3c0]
160565826000: system.ruby.cp_cntrl0.sequencer: Cache miss at [0xfaa3f8, line 0xfaa3c0]
160565828000: system.ruby.cp_cntrl0.sequencer: Cache miss at [0xf90c20, line 0xf90c00]
160565830000: system.ruby.cp_cntrl0.sequencer: Cache miss at [0xc62610, line 0xc62600]
160565832000: system.ruby.cp_cntrl0.sequencer: Cache miss at [0x13a7710, line 0x13a7700]
160565834000: system.ruby.cp_cntrl0.sequencer: Cache miss at [0x13a7710, line 0x13a7700]
160565836000: system.ruby.cp_cntrl0.sequencer: Cache miss at [0x13a7718, line 0x13a7700]
160565838000: system.ruby.cp_cntrl0.sequencer: Cache miss at [0x13a7718, line 0x13a7700]
160565840000: system.ruby.cp_cntrl0.sequencer: Cache miss at [0x13a7718, line 0x13a7700]
160565842000: system.ruby.cp_cntrl0.sequencer: Cache miss at [0x13a7720, line 0x13a7700]
160565844000: system.ruby.cp_cntrl0.sequencer: Cache miss at [0x13a7720, line 0x13a7700]
160565846000: system.ruby.cp_cntrl0.sequencer: Cache miss at [0x13a7720, line 0x13a7700]
160565848000: system.ruby.cp_cntrl0.sequencer: Cache miss at [0x38a68, line 0x38a40]
160565850000: system.ruby.cp_cntrl0.sequencer: Cache miss at [0x3fa8740, line 0x3fa8740]
160565852000: system.ruby.cp_cntrl0.sequencer: Cache miss at [0x10df9c8, line 0x10df9c0]
160565854000: system.ruby.cp_cntrl0.sequencer: Cache miss at [0x3fa8748, line 0x3fa8740]
160565856000: system.ruby.cp_cntrl0.sequencer: Cache miss at [0x3fa8748, line 0x3fa8740]
160565858000: system.ruby.cp_cntrl0.sequencer: Cache miss at [0x3fa8740, line 0x3fa8740]
160565860000: system.ruby.cp_cntrl0.sequencer: Cache miss at [0x38a68, line 0x38a40]
160565862000: system.ruby.cp_cntrl0.sequencer: Cache miss at [0xfaa3f0, line 0xfaa3c0]
160565864000: system.ruby.cp_cntrl0.sequencer: Cache miss at [0xfaa3f0, line 0xfaa3c0]
160565866000: system.ruby.cp_cntrl0.sequencer: Cache miss at [0xfaa3f8, line 0xfaa3c0]
160565868000: system.ruby.cp_cntrl0.sequencer: Cache miss at [0xf90c20, line 0xf90c00]
160565870000: system.ruby.cp_cntrl0.sequencer: Cache miss at [0xc62610, line 0xc62600]
160565872000: system.ruby.cp_cntrl0.sequencer: Cache miss at [0x13a7710, line 0x13a7700]
160565874000: system.ruby.cp_cntrl0.sequencer: Cache miss at [0x13a7710, line 0x13a7700]
160565876000: system.ruby.cp_cntrl0.sequencer: Cache miss at [0x13a7718, line 0x13a7700]
160565878000: system.ruby.cp_cntrl0.sequencer: Cache miss at [0x13a7718, line 0x13a7700]
160565880000: system.ruby.cp_cntrl0.sequencer: Cache miss at [0x13a7718, line 0x13a7700]
160565882000: system.ruby.cp_cntrl0.sequencer: Cache miss at [0x13a7720, line 0x13a7700]
160565884000: system.ruby.cp_cntrl0.sequencer: Cache miss at [0x13a7720, line 0x13a7700]
160565886000: system.ruby.cp_cntrl0.sequencer: Cache miss at [0x13a7720, line 0x13a7700]
160565888000: system.ruby.cp_cntrl0.sequencer: Cache miss at [0x38a68, line 0x38a40]
160565890000: system.ruby.cp_cntrl0.sequencer: Cache miss at [0x3fa8740, line 0x3fa8740]
160565892000: system.ruby.cp_cntrl0.sequencer: Cache miss at [0x10df9c8, line 0x10df9c0]
160565894000: system.ruby.cp_cntrl0.sequencer: Cache miss at [0x3fa8748, line 0x3fa8740]
160565896000: system.ruby.cp_cntrl0.sequencer: Cache miss at [0x3fa8748, line 0x3fa8740]
160565898000: system.ruby.cp_cntrl0.sequencer: Cache miss at [0x3fa8740, line 0x3fa8740]
160565900000: system.ruby.cp_cntrl0.sequencer: Cache miss at [0x38a68, line 0x38a40]
160565902000: system.ruby.cp_cntrl0.sequencer: Cache miss at [0xfaa3f0, line 0xfaa3c0]
160565904000: system.ruby.cp_cntrl0.sequencer: Cache miss at [0xfaa3f0, line 0xfaa3c0]
160565906000: system.ruby.cp_cntrl0.sequencer: Cache miss at [0xfaa3f8, line 0xfaa3c0]
160565908000: system.ruby.cp_cntrl0.sequencer: Cache miss at [0xf90c20, line 0xf90c00]
160565910000: system.ruby.cp_cntrl0.sequencer: Cache miss at [0xc62610, line 0xc62600]
160565912000: system.ruby.cp_cntrl0.sequencer: Cache miss at [0x13a7710, line 0x13a7700]
160565914000: system.ruby.cp_cntrl0.sequencer: Cache miss at [0x13a7710, line 0x13a7700]
160565916000: system.ruby.cp_cntrl0.sequencer: Cache miss at [0x13a7718, line 0x13a7700]
160565918000: system.ruby.cp_cntrl0.sequencer: Cache miss at [0x13a7718, line 0x13a7700]
160565920000: system.ruby.cp_cntrl0.sequencer: Cache miss at [0x13a7718, line 0x13a7700]
160565921130: system.ruby.sqc_cntrl0.sequencer: Cache hit at [0x401d040, line 0x401d040]
160565922000: system.ruby.cp_cntrl0.sequencer: Cache miss at [0x13a7720, line 0x13a7700]
160565924000: system.ruby.cp_cntrl0.sequencer: Cache miss at [0x13a7720, line 0x13a7700]
160565926000: system.ruby.cp_cntrl0.sequencer: Cache miss at [0x13a7720, line 0x13a7700]
160565928000: system.ruby.cp_cntrl0.sequencer: Cache miss at [0x38a68, line 0x38a40]
160565930000: system.ruby.cp_cntrl0.sequencer: Cache miss at [0x3fa8740, line 0x3fa8740]
160565932000: system.ruby.cp_cntrl0.sequencer: Cache miss at [0x10df9c8, line 0x10df9c0]
160565934000: system.ruby.cp_cntrl0.sequencer: Cache miss at [0x3fa8748, line 0x3fa8740]
160565936000: system.ruby.cp_cntrl0.sequencer: Cache miss at [0x3fa8748, line 0x3fa8740]
160565938000: system.ruby.cp_cntrl0.sequencer: Cache miss at [0x3fa8740, line 0x3fa8740]
160565940000: system.ruby.cp_cntrl0.sequencer: Cache miss at [0x38a68, line 0x38a40]
160565942000: system.ruby.cp_cntrl0.sequencer: Cache miss at [0xfaa3f0, line 0xfaa3c0]
160565944000: system.ruby.cp_cntrl0.sequencer: Cache miss at [0xfaa3f0, line 0xfaa3c0]
160565946000: system.ruby.cp_cntrl0.sequencer: Cache miss at [0xfaa3f8, line 0xfaa3c0]
160565948000: system.ruby.cp_cntrl0.sequencer: Cache miss at [0xf90c20, line 0xf90c00]
160565950000: system.ruby.cp_cntrl0.sequencer: Cache miss at [0xc62610, line 0xc62600]
160565952000: system.ruby.cp_cntrl0.sequencer: Cache miss at [0x13a7710, line 0x13a7700]
160565954000: system.ruby.cp_cntrl0.sequencer: Cache miss at [0x13a7710, line 0x13a7700]
160565956000: system.ruby.cp_cntrl0.sequencer: Cache miss at [0x13a7718, line 0x13a7700]
160565958000: system.ruby.cp_cntrl0.sequencer: Cache miss at [0x13a7718, line 0x13a7700]
160565960000: system.ruby.cp_cntrl0.sequencer: Cache miss at [0x13a7718, line 0x13a7700]
160565962000: system.ruby.cp_cntrl0.sequencer: Cache miss at [0x13a7720, line 0x13a7700]
160565964000: system.ruby.cp_cntrl0.sequencer: Cache miss at [0x13a7720, line 0x13a7700]
160565965000: system.ruby.cp_cntrl1.sequencer: Cache hit at [0x10d5bc8, line 0x10d5bc0]
160565966000: system.ruby.cp_cntrl0.sequencer: Cache miss at [0x13a7720, line 0x13a7700]
160565967000: system.ruby.cp_cntrl1.sequencer: Cache miss at [0x10d5bc8, line 0x10d5bc0]
160565968000: system.ruby.cp_cntrl0.sequencer: Cache miss at [0x38a68, line 0x38a40]
160565969000: system.ruby.cp_cntrl1.sequencer: Cache miss at [0x138bfd0, line 0x138bfc0]
160565970000: system.ruby.cp_cntrl0.sequencer: Cache miss at [0x3fa8740, line 0x3fa8740]
160565971000: system.ruby.cp_cntrl1.sequencer: Cache miss at [0x138bfd0, line 0x138bfc0]
160565972000: system.ruby.cp_cntrl0.sequencer: Cache miss at [0x10df9c8, line 0x10df9c0]
160565973000: system.ruby.cp_cntrl1.sequencer: Cache miss at [0x138bfd0, line 0x138bfc0]
160565974000: system.ruby.cp_cntrl0.sequencer: Cache miss at [0x3fa8748, line 0x3fa8740]
160565975000: system.ruby.cp_cntrl1.sequencer: Cache miss at [0x138bfd8, line 0x138bfc0]
160565976000: system.ruby.cp_cntrl0.sequencer: Cache miss at [0x3fa8748, line 0x3fa8740]
160565977000: system.ruby.cp_cntrl1.sequencer: Cache miss at [0x138bfd8, line 0x138bfc0]
160565978000: system.ruby.cp_cntrl0.sequencer: Cache miss at [0x3fa8740, line 0x3fa8740]
160565979000: system.ruby.cp_cntrl1.sequencer: Cache miss at [0x139cc68, line 0x139cc40]
160565980000: system.ruby.cp_cntrl0.sequencer: Cache miss at [0x38a68, line 0x38a40]
160565981000: system.ruby.cp_cntrl1.sequencer: Cache miss at [0xf9b290, line 0xf9b280]
160565982000: system.ruby.cp_cntrl0.sequencer: Cache miss at [0xfaa3f0, line 0xfaa3c0]
160565983000: system.ruby.cp_cntrl1.sequencer: Cache miss at [0xf9b290, line 0xf9b280]
160565984000: system.ruby.cp_cntrl0.sequencer: Cache miss at [0xfaa3f0, line 0xfaa3c0]
160565985000: system.ruby.cp_cntrl1.sequencer: Cache miss at [0xf9b298, line 0xf9b280]
160565986000: system.ruby.cp_cntrl0.sequencer: Cache miss at [0xfaa3f8, line 0xfaa3c0]
160565987000: system.ruby.cp_cntrl1.sequencer: Cache miss at [0xfaa0d0, line 0xfaa0c0]
160565988000: system.ruby.cp_cntrl0.sequencer: Cache miss at [0xf90c20, line 0xf90c00]
160565989000: system.ruby.cp_cntrl1.sequencer: Cache miss at [0xfaa0d0, line 0xfaa0c0]
160565990000: system.ruby.cp_cntrl0.sequencer: Cache miss at [0xc62610, line 0xc62600]
160565991000: system.ruby.cp_cntrl1.sequencer: Cache miss at [0xfaa0d8, line 0xfaa0c0]
160565992000: system.ruby.cp_cntrl0.sequencer: Cache miss at [0x13a7710, line 0x13a7700]
160565994000: system.ruby.cp_cntrl0.sequencer: Cache miss at [0x13a7710, line 0x13a7700]
160565996000: system.ruby.cp_cntrl0.sequencer: Cache miss at [0x13a7718, line 0x13a7700]
160565998000: system.ruby.cp_cntrl0.sequencer: Cache miss at [0x13a7718, line 0x13a7700]
160566000000: system.ruby.cp_cntrl0.sequencer: Cache miss at [0x13a7718, line 0x13a7700]
160566002000: system.ruby.cp_cntrl0.sequencer: Cache miss at [0x13a7720, line 0x13a7700]
160566004000: system.ruby.cp_cntrl0.sequencer: Cache miss at [0x13a7720, line 0x13a7700]
160566006000: system.ruby.cp_cntrl0.sequencer: Cache miss at [0x13a7720, line 0x13a7700]
160566008000: system.ruby.cp_cntrl0.sequencer: Cache miss at [0x38a68, line 0x38a40]
160566010000: system.ruby.cp_cntrl0.sequencer: Cache miss at [0x3fa8740, line 0x3fa8740]
160566011000: system.ruby.cp_cntrl1.sequencer: Cache miss at [0xfa80a0, line 0xfa8080]
160566012000: system.ruby.cp_cntrl0.sequencer: Cache miss at [0x10df9c8, line 0x10df9c0]
160566013000: system.ruby.cp_cntrl1.sequencer: Cache miss at [0x4aea0, line 0x4ae80]
160566014000: system.ruby.cp_cntrl0.sequencer: Cache miss at [0x3fa8748, line 0x3fa8740]
160566015000: system.ruby.cp_cntrl1.sequencer: Cache miss at [0xc906d0, line 0xc906c0]
160566016000: system.ruby.cp_cntrl0.sequencer: Cache miss at [0x3fa8748, line 0x3fa8740]
160566017000: system.ruby.cp_cntrl1.sequencer: Cache miss at [0xc906d0, line 0xc906c0]
160566018000: system.ruby.cp_cntrl0.sequencer: Cache miss at [0x3fa8740, line 0x3fa8740]
160566019000: system.ruby.cp_cntrl1.sequencer: Cache miss at [0xc906d8, line 0xc906c0]
160566020000: system.ruby.cp_cntrl0.sequencer: Cache miss at [0x38a68, line 0x38a40]
160566021000: system.ruby.cp_cntrl1.sequencer: Cache miss at [0x53ef8, line 0x53ec0]
160566022000: system.ruby.cp_cntrl0.sequencer: Cache miss at [0xfaa3f0, line 0xfaa3c0]
160566023000: system.ruby.cp_cntrl1.sequencer: Cache miss at [0xc906d8, line 0xc906c0]
160566024000: system.ruby.cp_cntrl0.sequencer: Cache miss at [0xfaa3f0, line 0xfaa3c0]
160566025000: system.ruby.cp_cntrl1.sequencer: Cache miss at [0xc906e0, line 0xc906c0]
160566026000: system.ruby.cp_cntrl0.sequencer: Cache miss at [0xfaa3f8, line 0xfaa3c0]
160566027000: system.ruby.cp_cntrl1.sequencer: Cache miss at [0xc84e48, line 0xc84e40]
160566028000: system.ruby.cp_cntrl0.sequencer: Cache miss at [0xf90c20, line 0xf90c00]
160566029000: system.ruby.cp_cntrl1.sequencer: Cache miss at [0xc906e0, line 0xc906c0]
160566030000: system.ruby.cp_cntrl0.sequencer: Cache miss at [0xc62610, line 0xc62600]
160566031000: system.ruby.cp_cntrl1.sequencer: Cache miss at [0xc906e0, line 0xc906c0]
160566032000: system.ruby.cp_cntrl0.sequencer: Cache miss at [0x13a7710, line 0x13a7700]
160566033000: system.ruby.cp_cntrl1.sequencer: Cache miss at [0xc906e8, line 0xc906c0]
160566034000: system.ruby.cp_cntrl0.sequencer: Cache miss at [0x13a7710, line 0x13a7700]
160566035000: system.ruby.cp_cntrl1.sequencer: Cache miss at [0xc906e8, line 0xc906c0]
160566036000: system.ruby.cp_cntrl0.sequencer: Cache miss at [0x13a7718, line 0x13a7700]
160566037000: system.ruby.cp_cntrl1.sequencer: Cache miss at [0xc906e8, line 0xc906c0]
160566038000: system.ruby.cp_cntrl0.sequencer: Cache miss at [0x13a7718, line 0x13a7700]
160566039000: system.ruby.cp_cntrl1.sequencer: Cache miss at [0xc906f0, line 0xc906c0]
160566040000: system.ruby.cp_cntrl0.sequencer: Cache miss at [0x13a7718, line 0x13a7700]
160566041000: system.ruby.cp_cntrl1.sequencer: Cache miss at [0x10d9c18, line 0x10d9c00]
160566042000: system.ruby.cp_cntrl0.sequencer: Cache miss at [0x13a7720, line 0x13a7700]
160566043000: system.ruby.cp_cntrl1.sequencer: Cache miss at [0xc906f0, line 0xc906c0]
160566044000: system.ruby.cp_cntrl0.sequencer: Cache miss at [0x13a7720, line 0x13a7700]
160566045000: system.ruby.cp_cntrl1.sequencer: Cache miss at [0xc906f8, line 0xc906c0]
160566046000: system.ruby.cp_cntrl0.sequencer: Cache miss at [0x13a7720, line 0x13a7700]
160566047000: system.ruby.cp_cntrl1.sequencer: Cache miss at [0xc906f8, line 0xc906c0]
160566048000: system.ruby.cp_cntrl0.sequencer: Cache miss at [0x38a68, line 0x38a40]
160566049000: system.ruby.cp_cntrl1.sequencer: Cache miss at [0xc906f8, line 0xc906c0]
160566050000: system.ruby.cp_cntrl0.sequencer: Cache miss at [0x3fa8740, line 0x3fa8740]
160566051000: system.ruby.cp_cntrl1.sequencer: Cache miss at [0xc90700, line 0xc90700]
160566052000: system.ruby.cp_cntrl0.sequencer: Cache miss at [0x10df9c8, line 0x10df9c0]
160566053000: system.ruby.cp_cntrl1.sequencer: Cache miss at [0x53d78, line 0x53d40]
160566054000: system.ruby.cp_cntrl0.sequencer: Cache miss at [0x3fa8748, line 0x3fa8740]
160566055000: system.ruby.cp_cntrl1.sequencer: Cache miss at [0xc90700, line 0xc90700]
160566056000: system.ruby.cp_cntrl0.sequencer: Cache miss at [0x3fa8748, line 0x3fa8740]
160566057000: system.ruby.cp_cntrl1.sequencer: Cache miss at [0x139b5c0, line 0x139b5c0]
160566058000: system.ruby.cp_cntrl0.sequencer: Cache miss at [0x3fa8740, line 0x3fa8740]
160566059000: system.ruby.cp_cntrl1.sequencer: Cache miss at [0xc90708, line 0xc90700]
160566060000: system.ruby.cp_cntrl0.sequencer: Cache miss at [0x38a68, line 0x38a40]
160566061000: system.ruby.cp_cntrl1.sequencer: Cache miss at [0xc90708, line 0xc90700]
160566062000: system.ruby.cp_cntrl0.sequencer: Cache miss at [0xfaa3f0, line 0xfaa3c0]
160566063000: system.ruby.cp_cntrl1.sequencer: Cache miss at [0xc90710, line 0xc90700]
160566064000: system.ruby.cp_cntrl0.sequencer: Cache miss at [0xfaa3f0, line 0xfaa3c0]
160566065000: system.ruby.cp_cntrl1.sequencer: Cache miss at [0xc90710, line 0xc90700]
160566066000: system.ruby.cp_cntrl0.sequencer: Cache miss at [0xfaa3f8, line 0xfaa3c0]
160566067000: system.ruby.cp_cntrl1.sequencer: Cache miss at [0xc90710, line 0xc90700]
160566068000: system.ruby.cp_cntrl0.sequencer: Cache miss at [0xf90c20, line 0xf90c00]
160566069000: system.ruby.cp_cntrl1.sequencer: Cache miss at [0xc90718, line 0xc90700]
160566070000: system.ruby.cp_cntrl0.sequencer: Cache miss at [0xc62610, line 0xc62600]
160566071000: system.ruby.cp_cntrl1.sequencer: Cache miss at [0xc90720, line 0xc90700]
160566072000: system.ruby.cp_cntrl0.sequencer: Cache miss at [0x13a7710, line 0x13a7700]
160566073000: system.ruby.cp_cntrl1.sequencer: Cache miss at [0xc90720, line 0xc90700]
160566074000: system.ruby.cp_cntrl0.sequencer: Cache miss at [0x13a7710, line 0x13a7700]
160566075000: system.ruby.cp_cntrl1.sequencer: Cache miss at [0xc90728, line 0xc90700]
160566076000: system.ruby.cp_cntrl0.sequencer: Cache miss at [0x13a7718, line 0x13a7700]
160566077000: system.ruby.cp_cntrl1.sequencer: Cache miss at [0xc90728, line 0xc90700]
160566078000: system.ruby.cp_cntrl0.sequencer: Cache miss at [0x13a7718, line 0x13a7700]
160566079000: system.ruby.cp_cntrl1.sequencer: Cache miss at [0xca2840, line 0xca2840]
160566080000: system.ruby.cp_cntrl0.sequencer: Cache miss at [0x13a7718, line 0x13a7700]
160566081000: system.ruby.cp_cntrl1.sequencer: Cache miss at [0x139cc60, line 0x139cc40]
160566082000: system.ruby.cp_cntrl0.sequencer: Cache miss at [0x13a7720, line 0x13a7700]
160566083000: system.ruby.cp_cntrl1.sequencer: Cache miss at [0xca2840, line 0xca2840]
160566084000: system.ruby.cp_cntrl0.sequencer: Cache miss at [0x13a7720, line 0x13a7700]
160566085000: system.ruby.cp_cntrl1.sequencer: Cache miss at [0x139cc58, line 0x139cc40]
160566086000: system.ruby.cp_cntrl0.sequencer: Cache miss at [0x13a7720, line 0x13a7700]
160566087000: system.ruby.cp_cntrl1.sequencer: Cache miss at [0xca2840, line 0xca2840]
160566088000: system.ruby.cp_cntrl0.sequencer: Cache miss at [0x38a68, line 0x38a40]
160566089000: system.ruby.cp_cntrl1.sequencer: Cache miss at [0x139cc50, line 0x139cc40]
160566090000: system.ruby.cp_cntrl0.sequencer: Cache miss at [0x3fa8740, line 0x3fa8740]
160566091000: system.ruby.cp_cntrl1.sequencer: Cache miss at [0xca2840, line 0xca2840]
160566092000: system.ruby.cp_cntrl0.sequencer: Cache miss at [0x10df9c8, line 0x10df9c0]
160566093000: system.ruby.cp_cntrl1.sequencer: Cache miss at [0xca2848, line 0xca2840]
160566094000: system.ruby.cp_cntrl0.sequencer: Cache miss at [0x3fa8748, line 0x3fa8740]
160566095000: system.ruby.cp_cntrl1.sequencer: Cache miss at [0xca2848, line 0xca2840]
160566096000: system.ruby.cp_cntrl0.sequencer: Cache miss at [0x3fa8748, line 0x3fa8740]
160566097000: system.ruby.cp_cntrl1.sequencer: Cache miss at [0x139cc48, line 0x139cc40]
160566098000: system.ruby.cp_cntrl0.sequencer: Cache miss at [0x3fa8740, line 0x3fa8740]
160566099000: system.ruby.cp_cntrl1.sequencer: Cache miss at [0xca2848, line 0xca2840]
160566100000: system.ruby.cp_cntrl0.sequencer: Cache miss at [0x38a68, line 0x38a40]
160566101000: system.ruby.cp_cntrl1.sequencer: Cache miss at [0x139cc40, line 0x139cc40]
160566102000: system.ruby.cp_cntrl0.sequencer: Cache miss at [0xfaa3f0, line 0xfaa3c0]
160566103000: system.ruby.cp_cntrl1.sequencer: Cache miss at [0xca2848, line 0xca2840]
160566104000: system.ruby.cp_cntrl0.sequencer: Cache miss at [0xfaa3f0, line 0xfaa3c0]
160566105000: system.ruby.cp_cntrl1.sequencer: Cache miss at [0x139cc38, line 0x139cc00]
160566106000: system.ruby.cp_cntrl0.sequencer: Cache miss at [0xfaa3f8, line 0xfaa3c0]
160566107000: system.ruby.cp_cntrl1.sequencer: Cache miss at [0xca2848, line 0xca2840]
160566108000: system.ruby.cp_cntrl0.sequencer: Cache miss at [0xf90c20, line 0xf90c00]
160566109000: system.ruby.cp_cntrl1.sequencer: Cache miss at [0xca2850, line 0xca2840]
160566110000: system.ruby.cp_cntrl0.sequencer: Cache miss at [0xc62610, line 0xc62600]
160566111000: system.ruby.cp_cntrl1.sequencer: Cache miss at [0xca2850, line 0xca2840]
160566112000: system.ruby.cp_cntrl0.sequencer: Cache miss at [0x13a7710, line 0x13a7700]
160566113000: system.ruby.cp_cntrl1.sequencer: Cache miss at [0xca2858, line 0xca2840]
160566114000: system.ruby.cp_cntrl0.sequencer: Cache miss at [0x13a7710, line 0x13a7700]
160566115000: system.ruby.cp_cntrl1.sequencer: Cache miss at [0x139b728, line 0x139b700]
160566116000: system.ruby.cp_cntrl0.sequencer: Cache miss at [0x13a7718, line 0x13a7700]
160566117000: system.ruby.cp_cntrl1.sequencer: Cache miss at [0xca2858, line 0xca2840]
160566118000: system.ruby.cp_cntrl0.sequencer: Cache miss at [0x13a7718, line 0x13a7700]
160566119000: system.ruby.cp_cntrl1.sequencer: Cache miss at [0x139cc28, line 0x139cc00]
160566120000: system.ruby.cp_cntrl0.sequencer: Cache miss at [0x13a7718, line 0x13a7700]
160566121000: system.ruby.cp_cntrl1.sequencer: Cache miss at [0xca2858, line 0xca2840]
160566122000: system.ruby.cp_cntrl0.sequencer: Cache miss at [0x13a7720, line 0x13a7700]
160566123000: system.ruby.cp_cntrl1.sequencer: Cache miss at [0xca2860, line 0xca2840]
160566124000: system.ruby.cp_cntrl0.sequencer: Cache miss at [0x13a7720, line 0x13a7700]
160566125000: system.ruby.cp_cntrl1.sequencer: Cache miss at [0xca2860, line 0xca2840]
160566126000: system.ruby.cp_cntrl0.sequencer: Cache miss at [0x13a7720, line 0x13a7700]
160566127000: system.ruby.cp_cntrl1.sequencer: Cache miss at [0x10d9c18, line 0x10d9c00]
160566128000: system.ruby.cp_cntrl0.sequencer: Cache miss at [0x38a68, line 0x38a40]
160566129000: system.ruby.cp_cntrl1.sequencer: Cache miss at [0xca2860, line 0xca2840]
160566130000: system.ruby.cp_cntrl0.sequencer: Cache miss at [0x3fa8740, line 0x3fa8740]
160566131000: system.ruby.cp_cntrl1.sequencer: Cache miss at [0xca2868, line 0xca2840]
160566132000: system.ruby.cp_cntrl0.sequencer: Cache miss at [0x10df9c8, line 0x10df9c0]
160566133000: system.ruby.cp_cntrl1.sequencer: Cache miss at [0xca2868, line 0xca2840]
160566134000: system.ruby.cp_cntrl0.sequencer: Cache miss at [0x3fa8748, line 0x3fa8740]
160566135000: system.ruby.cp_cntrl1.sequencer: Cache miss at [0xca2868, line 0xca2840]
160566136000: system.ruby.cp_cntrl0.sequencer: Cache miss at [0x3fa8748, line 0x3fa8740]
160566137000: system.ruby.cp_cntrl1.sequencer: Cache miss at [0xca2870, line 0xca2840]
160566138000: system.ruby.cp_cntrl0.sequencer: Cache miss at [0x3fa8740, line 0x3fa8740]
160566139000: system.ruby.cp_cntrl1.sequencer: Cache miss at [0xca2870, line 0xca2840]
160566140000: system.ruby.cp_cntrl0.sequencer: Cache miss at [0x38a68, line 0x38a40]
160566141000: system.ruby.cp_cntrl1.sequencer: Cache miss at [0xca2870, line 0xca2840]
160566142000: system.ruby.cp_cntrl0.sequencer: Cache miss at [0xfaa3f0, line 0xfaa3c0]
160566143000: system.ruby.cp_cntrl1.sequencer: Cache miss at [0xca2878, line 0xca2840]
160566144000: system.ruby.cp_cntrl0.sequencer: Cache miss at [0xfaa3f0, line 0xfaa3c0]
160566145000: system.ruby.cp_cntrl1.sequencer: Cache miss at [0xca2878, line 0xca2840]
160566146000: system.ruby.cp_cntrl0.sequencer: Cache miss at [0xfaa3f8, line 0xfaa3c0]
160566147000: system.ruby.cp_cntrl1.sequencer: Cache miss at [0xca2878, line 0xca2840]
160566148000: system.ruby.cp_cntrl0.sequencer: Cache miss at [0xf90c20, line 0xf90c00]
160566149000: system.ruby.cp_cntrl1.sequencer: Cache miss at [0xca2880, line 0xca2880]
160566150000: system.ruby.cp_cntrl0.sequencer: Cache miss at [0xc62610, line 0xc62600]
160566151000: system.ruby.cp_cntrl1.sequencer: Cache miss at [0xca2880, line 0xca2880]
160566152000: system.ruby.cp_cntrl0.sequencer: Cache miss at [0x13a7710, line 0x13a7700]
160566153000: system.ruby.cp_cntrl1.sequencer: Cache miss at [0xca2888, line 0xca2880]
160566154000: system.ruby.cp_cntrl0.sequencer: Cache miss at [0x13a7710, line 0x13a7700]
160566155000: system.ruby.cp_cntrl1.sequencer: Cache miss at [0xca2888, line 0xca2880]
160566156000: system.ruby.cp_cntrl0.sequencer: Cache miss at [0x13a7718, line 0x13a7700]
160566157000: system.ruby.cp_cntrl1.sequencer: Cache miss at [0xca2890, line 0xca2880]
160566158000: system.ruby.cp_cntrl0.sequencer: Cache miss at [0x13a7718, line 0x13a7700]
160566159000: system.ruby.cp_cntrl1.sequencer: Cache miss at [0xca2890, line 0xca2880]
160566160000: system.ruby.cp_cntrl0.sequencer: Cache miss at [0x13a7718, line 0x13a7700]
160566161000: system.ruby.cp_cntrl1.sequencer: Cache miss at [0xca2890, line 0xca2880]
160566162000: system.ruby.cp_cntrl0.sequencer: Cache miss at [0x13a7720, line 0x13a7700]
160566163000: system.ruby.cp_cntrl1.sequencer: Cache miss at [0xca2898, line 0xca2880]
160566164000: system.ruby.cp_cntrl0.sequencer: Cache miss at [0x13a7720, line 0x13a7700]
160566165000: system.ruby.cp_cntrl1.sequencer: Cache miss at [0xca2898, line 0xca2880]
160566166000: system.ruby.cp_cntrl0.sequencer: Cache miss at [0x13a7720, line 0x13a7700]
160566167000: system.ruby.cp_cntrl1.sequencer: Cache miss at [0xca28a0, line 0xca2880]
160566168000: system.ruby.cp_cntrl0.sequencer: Cache miss at [0x38a68, line 0x38a40]
160566169000: system.ruby.cp_cntrl1.sequencer: Cache miss at [0x53d78, line 0x53d40]
160566170000: system.ruby.cp_cntrl0.sequencer: Cache miss at [0x3fa8740, line 0x3fa8740]
160566171000: system.ruby.cp_cntrl1.sequencer: Cache miss at [0xca28a0, line 0xca2880]
160566172000: system.ruby.cp_cntrl0.sequencer: Cache miss at [0x10df9c8, line 0x10df9c0]
160566173000: system.ruby.cp_cntrl1.sequencer: Cache miss at [0xca28a0, line 0xca2880]
160566174000: system.ruby.cp_cntrl0.sequencer: Cache miss at [0x3fa8748, line 0x3fa8740]
160566175000: system.ruby.cp_cntrl1.sequencer: Cache miss at [0x139b5c0, line 0x139b5c0]
160566176000: system.ruby.cp_cntrl0.sequencer: Cache miss at [0x3fa8748, line 0x3fa8740]
160566177000: system.ruby.cp_cntrl1.sequencer: Cache miss at [0xca28a8, line 0xca2880]
160566178000: system.ruby.cp_cntrl0.sequencer: Cache miss at [0x3fa8740, line 0x3fa8740]
160566179000: system.ruby.cp_cntrl1.sequencer: Cache miss at [0xca28a8, line 0xca2880]
160566180000: system.ruby.cp_cntrl0.sequencer: Cache miss at [0x38a68, line 0x38a40]
160566181000: system.ruby.cp_cntrl1.sequencer: Cache miss at [0xca28a8, line 0xca2880]
160566182000: system.ruby.cp_cntrl0.sequencer: Cache miss at [0xfaa3f0, line 0xfaa3c0]
160566183000: system.ruby.cp_cntrl1.sequencer: Cache miss at [0xca28b0, line 0xca2880]
160566184000: system.ruby.cp_cntrl0.sequencer: Cache miss at [0xfaa3f0, line 0xfaa3c0]
160566185000: system.ruby.cp_cntrl1.sequencer: Cache miss at [0xca28b0, line 0xca2880]
160566186000: system.ruby.cp_cntrl0.sequencer: Cache miss at [0xfaa3f8, line 0xfaa3c0]
160566187000: system.ruby.cp_cntrl1.sequencer: Cache miss at [0xca28b0, line 0xca2880]
160566188000: system.ruby.cp_cntrl0.sequencer: Cache miss at [0xf90c20, line 0xf90c00]
160566189000: system.ruby.cp_cntrl1.sequencer: Cache miss at [0xca28b8, line 0xca2880]
160566190000: system.ruby.cp_cntrl0.sequencer: Cache miss at [0xc62610, line 0xc62600]
160566191000: system.ruby.cp_cntrl1.sequencer: Cache miss at [0x8f2d0, line 0x8f2c0]
160566192000: system.ruby.cp_cntrl0.sequencer: Cache miss at [0x13a7710, line 0x13a7700]
160566193000: system.ruby.cp_cntrl1.sequencer: Cache miss at [0xca28b8, line 0xca2880]
160566194000: system.ruby.cp_cntrl0.sequencer: Cache miss at [0x13a7710, line 0x13a7700]
160566195000: system.ruby.cp_cntrl1.sequencer: Cache miss at [0xca28b8, line 0xca2880]
160566196000: system.ruby.cp_cntrl0.sequencer: Cache miss at [0x13a7718, line 0x13a7700]
160566197000: system.ruby.cp_cntrl1.sequencer: Cache miss at [0xca28c0, line 0xca28c0]
160566198000: system.ruby.cp_cntrl0.sequencer: Cache miss at [0x13a7718, line 0x13a7700]
160566199000: system.ruby.cp_cntrl1.sequencer: Cache miss at [0xca28c0, line 0xca28c0]
160566200000: system.ruby.cp_cntrl0.sequencer: Cache miss at [0x13a7718, line 0x13a7700]
160566201000: system.ruby.cp_cntrl1.sequencer: Cache miss at [0x10d9c28, line 0x10d9c00]
160566202000: system.ruby.cp_cntrl0.sequencer: Cache miss at [0x13a7720, line 0x13a7700]
160566203000: system.ruby.cp_cntrl1.sequencer: Cache miss at [0xca28c0, line 0xca28c0]
160566204000: system.ruby.cp_cntrl0.sequencer: Cache miss at [0x13a7720, line 0x13a7700]
160566205000: system.ruby.cp_cntrl1.sequencer: Cache miss at [0xca28c8, line 0xca28c0]
160566206000: system.ruby.cp_cntrl0.sequencer: Cache miss at [0x13a7720, line 0x13a7700]
160566207000: system.ruby.cp_cntrl1.sequencer: Cache miss at [0xca28c8, line 0xca28c0]
160566208000: system.ruby.cp_cntrl0.sequencer: Cache miss at [0x38a68, line 0x38a40]
160566209000: system.ruby.cp_cntrl1.sequencer: Cache miss at [0xca28d0, line 0xca28c0]
160566210000: system.ruby.cp_cntrl0.sequencer: Cache miss at [0x3fa8740, line 0x3fa8740]
160566211000: system.ruby.cp_cntrl1.sequencer: Cache miss at [0xca28d0, line 0xca28c0]
160566212000: system.ruby.cp_cntrl0.sequencer: Cache miss at [0x10df9c8, line 0x10df9c0]
160566214000: system.ruby.cp_cntrl0.sequencer: Cache miss at [0x3fa8748, line 0x3fa8740]
160566216000: system.ruby.cp_cntrl0.sequencer: Cache miss at [0x3fa8748, line 0x3fa8740]
160566218000: system.ruby.cp_cntrl0.sequencer: Cache miss at [0x3fa8740, line 0x3fa8740]
160566220000: system.ruby.cp_cntrl0.sequencer: Cache miss at [0x38a68, line 0x38a40]
160566222000: system.ruby.cp_cntrl0.sequencer: Cache miss at [0xfaa3f0, line 0xfaa3c0]
160566224000: system.ruby.cp_cntrl0.sequencer: Cache miss at [0xfaa3f0, line 0xfaa3c0]
160566226000: system.ruby.cp_cntrl0.sequencer: Cache miss at [0xfaa3f8, line 0xfaa3c0]
160566228000: system.ruby.cp_cntrl0.sequencer: Cache miss at [0xf90c20, line 0xf90c00]
160566230000: system.ruby.cp_cntrl0.sequencer: Cache miss at [0xc62610, line 0xc62600]
160566231000: system.ruby.cp_cntrl1.sequencer: Cache miss at [0x13978d0, line 0x13978c0]
160566232000: system.ruby.cp_cntrl0.sequencer: Cache miss at [0x13a7710, line 0x13a7700]
160566233000: system.ruby.cp_cntrl1.sequencer: Cache miss at [0xca28d0, line 0xca28c0]
160566234000: system.ruby.cp_cntrl0.sequencer: Cache miss at [0x13a7710, line 0x13a7700]
160566235000: system.ruby.cp_cntrl1.sequencer: Cache miss at [0xca28d8, line 0xca28c0]
160566236000: system.ruby.cp_cntrl0.sequencer: Cache miss at [0x13a7718, line 0x13a7700]
160566237000: system.ruby.cp_cntrl1.sequencer: Cache miss at [0x8f2e0, line 0x8f2c0]
160566238000: system.ruby.cp_cntrl0.sequencer: Cache miss at [0x13a7718, line 0x13a7700]
160566239000: system.ruby.cp_cntrl1.sequencer: Cache miss at [0xca28d8, line 0xca28c0]
160566240000: system.ruby.cp_cntrl0.sequencer: Cache miss at [0x13a7718, line 0x13a7700]
160566241000: system.ruby.cp_cntrl1.sequencer: Cache miss at [0xca28d8, line 0xca28c0]
160566242000: system.ruby.cp_cntrl0.sequencer: Cache miss at [0x13a7720, line 0x13a7700]
160566243000: system.ruby.cp_cntrl1.sequencer: Cache miss at [0xca28e0, line 0xca28c0]
160566244000: system.ruby.cp_cntrl0.sequencer: Cache miss at [0x13a7720, line 0x13a7700]
160566245000: system.ruby.cp_cntrl1.sequencer: Cache miss at [0xca2af8, line 0xca2ac0]
160566246000: system.ruby.cp_cntrl0.sequencer: Cache miss at [0x13a7720, line 0x13a7700]
160566247000: system.ruby.cp_cntrl1.sequencer: Cache miss at [0xca2af8, line 0xca2ac0]
160566248000: system.ruby.cp_cntrl0.sequencer: Cache miss at [0x38a68, line 0x38a40]
160566249000: system.ruby.cp_cntrl1.sequencer: Cache miss at [0xca2b00, line 0xca2b00]
160566250000: system.ruby.cp_cntrl0.sequencer: Cache miss at [0x3fa8740, line 0x3fa8740]
160566252000: system.ruby.cp_cntrl0.sequencer: Cache miss at [0x10df9c8, line 0x10df9c0]
160566254000: system.ruby.cp_cntrl0.sequencer: Cache miss at [0x3fa8748, line 0x3fa8740]
[...]
160570808000: system.ruby.cp_cntrl1.sequencer: Cache miss at [0x10867b8, line 0x1086780]
160570809000: system.ruby.cp_cntrl0.sequencer: Cache miss at [0x13a7720, line 0x13a7700]
160570810000: system.ruby.cp_cntrl1.sequencer: Cache miss at [0x10867c0, line 0x10867c0]
160570811000: system.ruby.cp_cntrl0.sequencer: Cache miss at [0x38a68, line 0x38a40]
160570812000: system.ruby.cp_cntrl1.sequencer: Cache miss at [0x1090a98, line 0x1090a80]
160570813000: system.ruby.cp_cntrl0.sequencer: Cache miss at [0x3fa8740, line 0x3fa8740]
160570814000: system.ruby.cp_cntrl1.sequencer: Cache miss at [0x10867c0, line 0x10867c0]
160570815000: system.ruby.cp_cntrl0.sequencer: Cache miss at [0x10df9c8, line 0x10df9c0]
160570816000: system.ruby.cp_cntrl1.sequencer: Cache miss at [0x1090a40, line 0x1090a40]
160570817000: system.ruby.cp_cntrl0.sequencer: Cache miss at [0x3fa8748, line 0x3fa8740]
160570818000: system.ruby.cp_cntrl1.sequencer: Cache miss at [0x10867c0, line 0x10867c0]
160570819000: system.ruby.cp_cntrl0.sequencer: Cache miss at [0x3fa8748, line 0x3fa8740]
160570820000: system.ruby.cp_cntrl1.sequencer: Cache miss at [0x10867c8, line 0x10867c0]
160570821000: system.ruby.cp_cntrl0.sequencer: Cache miss at [0x3fa8740, line 0x3fa8740]
160570822000: system.ruby.cp_cntrl1.sequencer: Cache miss at [0x10867c8, line 0x10867c0]
160570823000: system.ruby.cp_cntrl0.sequencer: Cache miss at [0x38a68, line 0x38a40]
160570824000: system.ruby.cp_cntrl1.sequencer: Cache miss at [0x10867c8, line 0x10867c0]
160570825000: system.ruby.cp_cntrl0.sequencer: Cache miss at [0xfaa3f0, line 0xfaa3c0]
160570826000: system.ruby.cp_cntrl1.sequencer: Cache miss at [0x10867d0, line 0x10867c0]
160570827000: system.ruby.cp_cntrl0.sequencer: Cache miss at [0xfaa3f0, line 0xfaa3c0]
160570828000: system.ruby.cp_cntrl1.sequencer: Cache miss at [0x1090a40, line 0x1090a40]
160570829000: system.ruby.cp_cntrl0.sequencer: Cache miss at [0xfaa3f8, line 0xfaa3c0]
160570830000: system.ruby.cp_cntrl1.sequencer: Cache miss at [0x1090a40, line 0x1090a40]
160570831000: system.ruby.cp_cntrl0.sequencer: Cache miss at [0xf90c20, line 0xf90c00]
160570832000: system.ruby.cp_cntrl1.sequencer: Cache miss at [0x10867d0, line 0x10867c0]
160570833000: system.ruby.cp_cntrl0.sequencer: Cache miss at [0xc62610, line 0xc62600]
160570834000: system.ruby.cp_cntrl1.sequencer: Cache miss at [0x10867d0, line 0x10867c0]
160570835000: system.ruby.cp_cntrl0.sequencer: Cache miss at [0x13a7710, line 0x13a7700]
160570836000: system.ruby.cp_cntrl1.sequencer: Cache miss at [0x10867d8, line 0x10867c0]
160570837000: system.ruby.cp_cntrl0.sequencer: Cache miss at [0x13a7710, line 0x13a7700]
160570838000: system.ruby.cp_cntrl1.sequencer: Cache miss at [0x1090a88, line 0x1090a80]
160570839000: system.ruby.cp_cntrl0.sequencer: Cache miss at [0x13a7718, line 0x13a7700]
160570840000: system.ruby.cp_cntrl1.sequencer: Cache miss at [0x10867d8, line 0x10867c0]
160570841000: system.ruby.cp_cntrl0.sequencer: Cache miss at [0x13a7718, line 0x13a7700]
160570842000: system.ruby.cp_cntrl1.sequencer: Cache miss at [0x10867d8, line 0x10867c0]
160570843000: system.ruby.cp_cntrl0.sequencer: Cache miss at [0x13a7718, line 0x13a7700]
160570844000: system.ruby.cp_cntrl1.sequencer: Cache miss at [0x10867e0, line 0x10867c0]
160570845000: system.ruby.cp_cntrl0.sequencer: Cache miss at [0x13a7720, line 0x13a7700]
160570846000: system.ruby.cp_cntrl1.sequencer: Cache miss at [0x1086800, line 0x1086800]
160570847000: system.ruby.cp_cntrl0.sequencer: Cache miss at [0x13a7720, line 0x13a7700]
160570848000: system.ruby.cp_cntrl1.sequencer: Cache miss at [0x1090a40, line 0x1090a40]
160570849000: system.ruby.cp_cntrl0.sequencer: Cache miss at [0x13a7720, line 0x13a7700]
160570850000: system.ruby.cp_cntrl1.sequencer: Cache miss at [0x1086800, line 0x1086800]
160570851000: system.ruby.cp_cntrl0.sequencer: Cache miss at [0x38a68, line 0x38a40]
160570852000: system.ruby.cp_cntrl1.sequencer: Cache miss at [0x1086800, line 0x1086800]
160570853000: system.ruby.cp_cntrl0.sequencer: Cache miss at [0x3fa8740, line 0x3fa8740]
160570854000: system.ruby.cp_cntrl1.sequencer: Cache miss at [0x1086808, line 0x1086800]
160570855000: system.ruby.cp_cntrl0.sequencer: Cache miss at [0x10df9c8, line 0x10df9c0]
160570856000: system.ruby.cp_cntrl1.sequencer: Cache miss at [0x10867e0, line 0x10867c0]
160570857000: system.ruby.cp_cntrl0.sequencer: Cache miss at [0x3fa8748, line 0x3fa8740]
160570858000: system.ruby.cp_cntrl1.sequencer: Cache miss at [0x10867e8, line 0x10867c0]
160570859000: system.ruby.cp_cntrl0.sequencer: Cache miss at [0x3fa8748, line 0x3fa8740]
160570860000: system.ruby.cp_cntrl1.sequencer: Cache miss at [0x10867e8, line 0x10867c0]
160570861000: system.ruby.cp_cntrl0.sequencer: Cache miss at [0x3fa8740, line 0x3fa8740]
160570861185: system.ruby.tcp_cntrl0.coalescer: ReadCallBack GPU Cache hit at <extra arg>%x
160570861185: system.ruby.tcp_cntrl0.coalescer: GPU Cache hit at [0x1386108, line 0x1386100]
160570862000: system.ruby.cp_cntrl1.sequencer: Cache miss at [0x10867e8, line 0x10867c0]
160570863000: system.ruby.cp_cntrl0.sequencer: Cache miss at [0x38a68, line 0x38a40]
160570864000: system.ruby.cp_cntrl1.sequencer: Cache miss at [0x139cb48, line 0x139cb40]
160570865000: system.ruby.cp_cntrl0.sequencer: Cache miss at [0xfaa3f0, line 0xfaa3c0]
160570866000: system.ruby.cp_cntrl1.sequencer: Cache miss at [0x10867e8, line 0x10867c0]
160570867000: system.ruby.cp_cntrl0.sequencer: Cache miss at [0xfaa3f0, line 0xfaa3c0]
160570868000: system.ruby.cp_cntrl1.sequencer: Cache miss at [0x139cb50, line 0x139cb40]
160570869000: system.ruby.cp_cntrl0.sequencer: Cache miss at [0xfaa3f8, line 0xfaa3c0]
160570870000: system.ruby.cp_cntrl1.sequencer: Cache miss at [0x10867f0, line 0x10867c0]
160570871000: system.ruby.cp_cntrl0.sequencer: Cache miss at [0xf90c20, line 0xf90c00]
160570872000: system.ruby.cp_cntrl1.sequencer: Cache miss at [0x139cb58, line 0x139cb40]
160570873000: system.ruby.cp_cntrl0.sequencer: Cache miss at [0xc62610, line 0xc62600]
160570874000: system.ruby.cp_cntrl1.sequencer: Cache miss at [0x10867f0, line 0x10867c0]
160570875000: system.ruby.cp_cntrl0.sequencer: Cache miss at [0x13a7710, line 0x13a7700]
160570876000: system.ruby.cp_cntrl1.sequencer: Cache miss at [0x139cb60, line 0x139cb40]
160570877000: system.ruby.cp_cntrl0.sequencer: Cache miss at [0x13a7710, line 0x13a7700]
160570878000: system.ruby.cp_cntrl1.sequencer: Cache miss at [0x10867f0, line 0x10867c0]
160570879000: system.ruby.cp_cntrl0.sequencer: Cache miss at [0x13a7718, line 0x13a7700]
160570880000: system.ruby.cp_cntrl1.sequencer: Cache miss at [0x139cb68, line 0x139cb40]
160570881000: system.ruby.cp_cntrl0.sequencer: Cache miss at [0x13a7718, line 0x13a7700]
160570882000: system.ruby.cp_cntrl1.sequencer: Cache miss at [0x3fab1e0, line 0x3fab1c0]
160570883000: system.ruby.cp_cntrl0.sequencer: Cache miss at [0x13a7718, line 0x13a7700]
160570884000: system.ruby.cp_cntrl1.sequencer: Cache miss at [0x3fab1e8, line 0x3fab1c0]
160570885000: system.ruby.cp_cntrl0.sequencer: Cache miss at [0x13a7720, line 0x13a7700]
160570886000: system.ruby.cp_cntrl1.sequencer: Cache miss at [0x10dfa60, line 0x10dfa40]
160570887000: system.ruby.cp_cntrl0.sequencer: Cache miss at [0x13a7720, line 0x13a7700]
160570888000: system.ruby.cp_cntrl1.sequencer: Cache miss at [0x3fab1e8, line 0x3fab1c0]
160570889000: system.ruby.cp_cntrl0.sequencer: Cache miss at [0x13a7720, line 0x13a7700]
160570890000: system.ruby.cp_cntrl1.sequencer: Cache miss at [0x3fab1f0, line 0x3fab1c0]
160570891000: system.ruby.cp_cntrl0.sequencer: Cache miss at [0x38a68, line 0x38a40]
160570892000: system.ruby.cp_cntrl1.sequencer: Cache miss at [0x1397cd8, line 0x1397cc0]
160570893000: system.ruby.cp_cntrl0.sequencer: Cache miss at [0x3fa8740, line 0x3fa8740]
160570894000: system.ruby.cp_cntrl1.sequencer: Cache miss at [0x3fab1f0, line 0x3fab1c0]
160570895000: system.ruby.cp_cntrl0.sequencer: Cache miss at [0x10df9c8, line 0x10df9c0]
160570896000: system.ruby.cp_cntrl1.sequencer: Cache miss at [0x3fab1f0, line 0x3fab1c0]
160570897000: system.ruby.cp_cntrl0.sequencer: Cache miss at [0x3fa8748, line 0x3fa8740]
160570898000: system.ruby.cp_cntrl1.sequencer: Cache miss at [0x3fab1f8, line 0x3fab1c0]
160570899000: system.ruby.cp_cntrl0.sequencer: Cache miss at [0x3fa8748, line 0x3fa8740]
160570900000: system.ruby.cp_cntrl1.sequencer: Cache miss at [0x139cb68, line 0x139cb40]
160570901000: system.ruby.cp_cntrl0.sequencer: Cache miss at [0x3fa8740, line 0x3fa8740]
160570903000: system.ruby.cp_cntrl0.sequencer: Cache miss at [0x38a68, line 0x38a40]
160570905000: system.ruby.cp_cntrl0.sequencer: Cache miss at [0xfaa3f0, line 0xfaa3c0]
160570907000: system.ruby.cp_cntrl0.sequencer: Cache miss at [0xfaa3f0, line 0xfaa3c0]
160570909000: system.ruby.cp_cntrl0.sequencer: Cache miss at [0xfaa3f8, line 0xfaa3c0]
160570911000: system.ruby.cp_cntrl0.sequencer: Cache miss at [0xf90c20, line 0xf90c00]
160570913000: system.ruby.cp_cntrl0.sequencer: Cache miss at [0xc62610, line 0xc62600]
160570915000: system.ruby.cp_cntrl0.sequencer: Cache miss at [0x13a7710, line 0x13a7700]
160570917000: system.ruby.cp_cntrl0.sequencer: Cache miss at [0x13a7710, line 0x13a7700]
160570919000: system.ruby.cp_cntrl0.sequencer: Cache miss at [0x13a7718, line 0x13a7700]
160570920000: system.ruby.cp_cntrl1.sequencer: Cache miss at [0x1088ed0, line 0x1088ec0]
160570921000: system.ruby.cp_cntrl0.sequencer: Cache miss at [0x13a7718, line 0x13a7700]
160570922000: system.ruby.cp_cntrl1.sequencer: Cache miss at [0x1088ed0, line 0x1088ec0]
160570923000: system.ruby.cp_cntrl0.sequencer: Cache miss at [0x13a7718, line 0x13a7700]
160570924000: system.ruby.cp_cntrl1.sequencer: Cache miss at [0x1088ed0, line 0x1088ec0]
160570925000: system.ruby.cp_cntrl0.sequencer: Cache miss at [0x13a7720, line 0x13a7700]
160570926000: system.ruby.cp_cntrl1.sequencer: Cache miss at [0x1088ed8, line 0x1088ec0]
160570927000: system.ruby.cp_cntrl0.sequencer: Cache miss at [0x13a7720, line 0x13a7700]
160570928000: system.ruby.cp_cntrl1.sequencer: Cache miss at [0x1088ed8, line 0x1088ec0]
160570929000: system.ruby.cp_cntrl0.sequencer: Cache miss at [0x13a7720, line 0x13a7700]
160570930000: system.ruby.cp_cntrl1.sequencer: Cache miss at [0x1088ed8, line 0x1088ec0]
160570931000: system.ruby.cp_cntrl0.sequencer: Cache miss at [0x38a68, line 0x38a40]
160570932000: system.ruby.cp_cntrl1.sequencer: Cache miss at [0x1088ee0, line 0x1088ec0]
160570933000: system.ruby.cp_cntrl0.sequencer: Cache miss at [0x3fa8740, line 0x3fa8740]
160570934000: system.ruby.cp_cntrl1.sequencer: Cache miss at [0x1088ee0, line 0x1088ec0]
160570935000: system.ruby.cp_cntrl0.sequencer: Cache miss at [0x10df9c8, line 0x10df9c0]
160570936000: system.ruby.cp_cntrl1.sequencer: Cache miss at [0x1174940, line 0x1174940]
160570937000: system.ruby.cp_cntrl0.sequencer: Cache miss at [0x3fa8748, line 0x3fa8740]
160570938000: system.ruby.cp_cntrl1.sequencer: Cache miss at [0x1174940, line 0x1174940]
160570939000: system.ruby.cp_cntrl0.sequencer: Cache miss at [0x3fa8748, line 0x3fa8740]
160570940000: system.ruby.cp_cntrl1.sequencer: Cache miss at [0x139cb60, line 0x139cb40]
160570941000: system.ruby.cp_cntrl0.sequencer: Cache miss at [0x3fa8740, line 0x3fa8740]
160570942000: system.ruby.cp_cntrl1.sequencer: Cache miss at [0x1174940, line 0x1174940]
160570943000: system.ruby.cp_cntrl0.sequencer: Cache miss at [0x38a68, line 0x38a40]
160570944000: system.ruby.cp_cntrl1.sequencer: Cache miss at [0x1174948, line 0x1174940]
160570945000: system.ruby.cp_cntrl0.sequencer: Cache miss at [0xfaa3f0, line 0xfaa3c0]
160570946000: system.ruby.cp_cntrl1.sequencer: Cache miss at [0x1174948, line 0x1174940]
160570947000: system.ruby.cp_cntrl0.sequencer: Cache miss at [0xfaa3f0, line 0xfaa3c0]
160570948000: system.ruby.cp_cntrl1.sequencer: Cache miss at [0x10d5568, line 0x10d5540]
160570949000: system.ruby.cp_cntrl0.sequencer: Cache miss at [0xfaa3f8, line 0xfaa3c0]
160570950000: system.ruby.cp_cntrl1.sequencer: Cache miss at [0x1174948, line 0x1174940]
160570951000: system.ruby.cp_cntrl0.sequencer: Cache miss at [0xf90c20, line 0xf90c00]
160570952000: system.ruby.cp_cntrl1.sequencer: Cache miss at [0x1174950, line 0x1174940]
160570953000: system.ruby.cp_cntrl0.sequencer: Cache miss at [0xc62610, line 0xc62600]
160570954000: system.ruby.cp_cntrl1.sequencer: Cache miss at [0x1174950, line 0x1174940]
160570955000: system.ruby.cp_cntrl0.sequencer: Cache miss at [0x13a7710, line 0x13a7700]
160570956000: system.ruby.cp_cntrl1.sequencer: Cache miss at [0x1174950, line 0x1174940]
160570957000: system.ruby.cp_cntrl0.sequencer: Cache miss at [0x13a7710, line 0x13a7700]
160570958000: system.ruby.cp_cntrl1.sequencer: Cache miss at [0x10d5570, line 0x10d5540]
160570959000: system.ruby.cp_cntrl0.sequencer: Cache miss at [0x13a7718, line 0x13a7700]
160570960000: system.ruby.cp_cntrl1.sequencer: Cache miss at [0x1174950, line 0x1174940]
160570961000: system.ruby.cp_cntrl0.sequencer: Cache miss at [0x13a7718, line 0x13a7700]
160570962000: system.ruby.cp_cntrl1.sequencer: Cache miss at [0x1174958, line 0x1174940]
160570963000: system.ruby.cp_cntrl0.sequencer: Cache miss at [0x13a7718, line 0x13a7700]
160570964000: system.ruby.cp_cntrl1.sequencer: Cache miss at [0x1174958, line 0x1174940]
160570965000: system.ruby.cp_cntrl0.sequencer: Cache miss at [0x13a7720, line 0x13a7700]
160570966000: system.ruby.cp_cntrl1.sequencer: Cache miss at [0x1174958, line 0x1174940]
160570967000: system.ruby.cp_cntrl0.sequencer: Cache miss at [0x13a7720, line 0x13a7700]
160570968000: system.ruby.cp_cntrl1.sequencer: Cache miss at [0x1174968, line 0x1174940]
160570969000: system.ruby.cp_cntrl0.sequencer: Cache miss at [0x13a7720, line 0x13a7700]
160570970000: system.ruby.cp_cntrl1.sequencer: Cache miss at [0x1174968, line 0x1174940]
160570971000: system.ruby.cp_cntrl0.sequencer: Cache miss at [0x38a68, line 0x38a40]
160570972000: system.ruby.cp_cntrl1.sequencer: Cache miss at [0x1174970, line 0x1174940]
160570973000: system.ruby.cp_cntrl0.sequencer: Cache miss at [0x3fa8740, line 0x3fa8740]
160570974000: system.ruby.cp_cntrl1.sequencer: Cache miss at [0x1174970, line 0x1174940]
160570975000: system.ruby.cp_cntrl0.sequencer: Cache miss at [0x10df9c8, line 0x10df9c0]
160570976000: system.ruby.cp_cntrl1.sequencer: Cache miss at [0x10d56d0, line 0x10d56c0]
160570977000: system.ruby.cp_cntrl0.sequencer: Cache miss at [0x3fa8748, line 0x3fa8740]
160570978000: system.ruby.cp_cntrl1.sequencer: Cache miss at [0x1174970, line 0x1174940]
160570979000: system.ruby.cp_cntrl0.sequencer: Cache miss at [0x3fa8748, line 0x3fa8740]
160570980000: system.ruby.cp_cntrl1.sequencer: Cache miss at [0x1174970, line 0x1174940]
160570981000: system.ruby.cp_cntrl0.sequencer: Cache miss at [0x3fa8740, line 0x3fa8740]
160570982000: system.ruby.cp_cntrl1.sequencer: Cache miss at [0x1174978, line 0x1174940]
160570983000: system.ruby.cp_cntrl0.sequencer: Cache miss at [0x38a68, line 0x38a40]
160570984000: system.ruby.cp_cntrl1.sequencer: Cache miss at [0x10d56d8, line 0x10d56c0]
160570985000: system.ruby.cp_cntrl0.sequencer: Cache miss at [0xfaa3f0, line 0xfaa3c0]
160570986000: system.ruby.cp_cntrl1.sequencer: Cache miss at [0x1174978, line 0x1174940]
160570987000: system.ruby.cp_cntrl0.sequencer: Cache miss at [0xfaa3f0, line 0xfaa3c0]
160570988000: system.ruby.cp_cntrl1.sequencer: Cache miss at [0x1174978, line 0x1174940]
160570989000: system.ruby.cp_cntrl0.sequencer: Cache miss at [0xfaa3f8, line 0xfaa3c0]
160570990000: system.ruby.cp_cntrl1.sequencer: Cache miss at [0x1174980, line 0x1174980]
160570991000: system.ruby.cp_cntrl0.sequencer: Cache miss at [0xf90c20, line 0xf90c00]
160570992000: system.ruby.cp_cntrl1.sequencer: Cache miss at [0x1174980, line 0x1174980]
160570993000: system.ruby.cp_cntrl0.sequencer: Cache miss at [0xc62610, line 0xc62600]
160570994000: system.ruby.cp_cntrl1.sequencer: Cache miss at [0x1174980, line 0x1174980]
160570995000: system.ruby.cp_cntrl0.sequencer: Cache miss at [0x13a7710, line 0x13a7700]
160570996000: system.ruby.cp_cntrl1.sequencer: Cache miss at [0x1174980, line 0x1174980]
160570997000: system.ruby.cp_cntrl0.sequencer: Cache miss at [0x13a7710, line 0x13a7700]
160570998000: system.ruby.cp_cntrl1.sequencer: Cache miss at [0x1174988, line 0x1174980]
160570999000: system.ruby.cp_cntrl0.sequencer: Cache miss at [0x13a7718, line 0x13a7700]
160571000000: system.ruby.cp_cntrl1.sequencer: Cache miss at [0x1174988, line 0x1174980]
160571001000: system.ruby.cp_cntrl0.sequencer: Cache miss at [0x13a7718, line 0x13a7700]
160571002000: system.ruby.cp_cntrl1.sequencer: Cache miss at [0x139cb60, line 0x139cb40]
160571003000: system.ruby.cp_cntrl0.sequencer: Cache miss at [0x13a7718, line 0x13a7700]
160571004000: system.ruby.cp_cntrl1.sequencer: Cache miss at [0x1174988, line 0x1174980]
160571005000: system.ruby.cp_cntrl0.sequencer: Cache miss at [0x13a7720, line 0x13a7700]
160571006000: system.ruby.cp_cntrl1.sequencer: Cache miss at [0x139cb68, line 0x139cb40]
160571007000: system.ruby.cp_cntrl0.sequencer: Cache miss at [0x13a7720, line 0x13a7700]
160571008000: system.ruby.cp_cntrl1.sequencer: Cache miss at [0x3fab1f8, line 0x3fab1c0]
160571009000: system.ruby.cp_cntrl0.sequencer: Cache miss at [0x13a7720, line 0x13a7700]
160571010000: system.ruby.cp_cntrl1.sequencer: Cache miss at [0x3fab1f8, line 0x3fab1c0]
160571011000: system.ruby.cp_cntrl0.sequencer: Cache miss at [0x38a68, line 0x38a40]
160571012000: system.ruby.cp_cntrl1.sequencer: Cache miss at [0x3fab1f8, line 0x3fab1c0]
160571013000: system.ruby.cp_cntrl0.sequencer: Cache miss at [0x3fa8740, line 0x3fa8740]
160571015000: system.ruby.cp_cntrl0.sequencer: Cache miss at [0x10df9c8, line 0x10df9c0]
160571017000: system.ruby.cp_cntrl0.sequencer: Cache miss at [0x3fa8748, line 0x3fa8740]
160571018805: system.ruby.tcp_cntrl0.coalescer: ReadCallBack GPU Cache miss at <extra arg>%x
160571018805: system.ruby.tcp_cntrl0.coalescer: GPU Cache miss at [0x1386184, line 0x1386180]
160571019000: system.ruby.cp_cntrl0.sequencer: Cache miss at [0x3fa8748, line 0x3fa8740]
160571021000: system.ruby.cp_cntrl0.sequencer: Cache miss at [0x3fa8740, line 0x3fa8740]
160571023000: system.ruby.cp_cntrl0.sequencer: Cache miss at [0x38a68, line 0x38a40]
160571025000: system.ruby.cp_cntrl0.sequencer: Cache miss at [0xfaa3f0, line 0xfaa3c0]
160571027000: system.ruby.cp_cntrl0.sequencer: Cache miss at [0xfaa3f0, line 0xfaa3c0]
160571029000: system.ruby.cp_cntrl0.sequencer: Cache miss at [0xfaa3f8, line 0xfaa3c0]
160571031000: system.ruby.cp_cntrl0.sequencer: Cache miss at [0xf90c20, line 0xf90c00]
160571033000: system.ruby.cp_cntrl0.sequencer: Cache miss at [0xc62610, line 0xc62600]
160571035000: system.ruby.cp_cntrl0.sequencer: Cache miss at [0x13a7710, line 0x13a7700]
160571037000: system.ruby.cp_cntrl0.sequencer: Cache miss at [0x13a7710, line 0x13a7700]
160571039000: system.ruby.cp_cntrl0.sequencer: Cache miss at [0x13a7718, line 0x13a7700]
160571041000: system.ruby.cp_cntrl0.sequencer: Cache miss at [0x13a7718, line 0x13a7700]
160571043000: system.ruby.cp_cntrl0.sequencer: Cache miss at [0x13a7718, line 0x13a7700]
160571045000: system.ruby.cp_cntrl0.sequencer: Cache miss at [0x13a7720, line 0x13a7700]
160571047000: system.ruby.cp_cntrl0.sequencer: Cache miss at [0x13a7720, line 0x13a7700]
160571049000: system.ruby.cp_cntrl0.sequencer: Cache miss at [0x13a7720, line 0x13a7700]
160571051000: system.ruby.cp_cntrl0.sequencer: Cache miss at [0x38a68, line 0x38a40]
160571053000: system.ruby.cp_cntrl0.sequencer: Cache miss at [0x3fa8740, line 0x3fa8740]
160571055000: system.ruby.cp_cntrl0.sequencer: Cache miss at [0x10df9c8, line 0x10df9c0]
160571057000: system.ruby.cp_cntrl0.sequencer: Cache miss at [0x3fa8748, line 0x3fa8740]
160571059000: system.ruby.cp_cntrl0.sequencer: Cache miss at [0x3fa8748, line 0x3fa8740]
Dummy value = 0
Ticks: 167650598500
Exiting because  exiting with last active thread context
