Global frequency set at 1000000000000 ticks per second
Forcing maxCoalescedReqs to 32 (TLB assoc.) 
Forcing maxCoalescedReqs to 32 (TLB assoc.) 
Forcing maxCoalescedReqs to 32 (TLB assoc.) 
Forcing maxCoalescedReqs to 32 (TLB assoc.) 
Forcing maxCoalescedReqs to 32 (TLB assoc.) 
Forcing maxCoalescedReqs to 32 (TLB assoc.) 
Forcing maxCoalescedReqs to 32 (TLB assoc.) 
Forcing maxCoalescedReqs to 32 (TLB assoc.) 
gem5 Simulator System.  https://www.gem5.org
gem5 is copyrighted software; use the --copyright option for details.

gem5 version DEVELOP-FOR-23.1
gem5 compiled Nov  7 2023 23:23:15
gem5 started Nov 18 2023 18:26:14
gem5 executing on 23cdfaa917dc, pid 1
command line: build/VEGA_X86/gem5.opt --debug-flag=RubyHitMiss --debug-start=160570397206 --debug-end=160578595665 configs/example/apu_se.py -n 3 --dgpu --gfx-version=gfx900 --num-compute-units=4 --cu-per-sa=4 --num-gpu-complex=1 --reg-alloc-policy=dynamic --num-tccs=8 --num-dirs=64 --mem-size=16GB --mem-type=HBM_2000_4H_1x64 --vreg-file-size=16384 --sreg-file-size=800 --tcc-size=256kB --gpu-clock=1801MHz --ruby-clock=1000MHz --vrf_lm_bus_latency=6 --mem-req-latency=69 --mem-resp-latency=69 --mandatory_queue_latency=1 --max-cu-tokens=160 --max-coalesces-per-cycle=10 --sqc-size=16kB --tcp-size=512B --scalar-mem-req-latency=28 --TCP_latency=4 --tcp-assoc=4 --tcp-num-banks=16 --TCC_latency=121 --tcc-assoc=16 --tcc-tag-access-latency=1 --tcc-data-access-latency=1 --tcp-rp=LFURP --WB_L2 --tcc-rp=LFURP -c gpu_test_fewer_wait/lfu_test_3

info: Standard input is not a terminal, disabling listeners.
Num SQC =  1 Num scalar caches =  1 Num CU =  4
160570398000: system.ruby.cp_cntrl0.sequencer: Cache miss at [0x3fa8740, line 0x3fa8740]
160570400000: system.ruby.cp_cntrl0.sequencer: Cache miss at [0x10dfc88, line 0x10dfc80]
160570402000: system.ruby.cp_cntrl0.sequencer: Cache miss at [0x3fa8748, line 0x3fa8740]
160570404000: system.ruby.cp_cntrl0.sequencer: Cache miss at [0x3fa8748, line 0x3fa8740]
160570406000: system.ruby.cp_cntrl0.sequencer: Cache miss at [0x3fa8740, line 0x3fa8740]
160570408000: system.ruby.cp_cntrl0.sequencer: Cache miss at [0x38a58, line 0x38a40]
160570410000: system.ruby.cp_cntrl0.sequencer: Cache miss at [0xfaa3f0, line 0xfaa3c0]
160570412000: system.ruby.cp_cntrl0.sequencer: Cache miss at [0xfaa3f0, line 0xfaa3c0]
160570414000: system.ruby.cp_cntrl0.sequencer: Cache miss at [0xfaa3f8, line 0xfaa3c0]
160570416000: system.ruby.cp_cntrl0.sequencer: Cache miss at [0xf90c20, line 0xf90c00]
160570418000: system.ruby.cp_cntrl0.sequencer: Cache miss at [0xc62610, line 0xc62600]
160570420000: system.ruby.cp_cntrl0.sequencer: Cache miss at [0x13a7710, line 0x13a7700]
160570422000: system.ruby.cp_cntrl0.sequencer: Cache miss at [0x13a7710, line 0x13a7700]
160570424000: system.ruby.cp_cntrl0.sequencer: Cache miss at [0x13a7718, line 0x13a7700]
160570426000: system.ruby.cp_cntrl0.sequencer: Cache miss at [0x13a7718, line 0x13a7700]
160570428000: system.ruby.cp_cntrl0.sequencer: Cache miss at [0x13a7718, line 0x13a7700]
160570430000: system.ruby.cp_cntrl0.sequencer: Cache miss at [0x13a7720, line 0x13a7700]
160570432000: system.ruby.cp_cntrl0.sequencer: Cache miss at [0x13a7720, line 0x13a7700]
160570434000: system.ruby.cp_cntrl0.sequencer: Cache miss at [0x13a7720, line 0x13a7700]
160570436000: system.ruby.cp_cntrl0.sequencer: Cache miss at [0x38a58, line 0x38a40]
160570438000: system.ruby.cp_cntrl0.sequencer: Cache miss at [0x3fa8740, line 0x3fa8740]
160570440000: system.ruby.cp_cntrl0.sequencer: Cache miss at [0x10dfc88, line 0x10dfc80]
160570442000: system.ruby.cp_cntrl0.sequencer: Cache miss at [0x3fa8748, line 0x3fa8740]
160570444000: system.ruby.cp_cntrl0.sequencer: Cache miss at [0x3fa8748, line 0x3fa8740]
160570446000: system.ruby.cp_cntrl0.sequencer: Cache miss at [0x3fa8740, line 0x3fa8740]
160570448000: system.ruby.cp_cntrl0.sequencer: Cache miss at [0x38a58, line 0x38a40]
160570450000: system.ruby.cp_cntrl0.sequencer: Cache miss at [0xfaa3f0, line 0xfaa3c0]
160570452000: system.ruby.cp_cntrl0.sequencer: Cache miss at [0xfaa3f0, line 0xfaa3c0]
160570454000: system.ruby.cp_cntrl0.sequencer: Cache miss at [0xfaa3f8, line 0xfaa3c0]
160570456000: system.ruby.cp_cntrl0.sequencer: Cache miss at [0xf90c20, line 0xf90c00]
160570458000: system.ruby.cp_cntrl0.sequencer: Cache miss at [0xc62610, line 0xc62600]
160570460000: system.ruby.cp_cntrl0.sequencer: Cache miss at [0x13a7710, line 0x13a7700]
160570462000: system.ruby.cp_cntrl0.sequencer: Cache miss at [0x13a7710, line 0x13a7700]
160570464000: system.ruby.cp_cntrl0.sequencer: Cache miss at [0x13a7718, line 0x13a7700]
160570466000: system.ruby.cp_cntrl0.sequencer: Cache miss at [0x13a7718, line 0x13a7700]
160570468000: system.ruby.cp_cntrl0.sequencer: Cache miss at [0x13a7718, line 0x13a7700]
160570470000: system.ruby.cp_cntrl0.sequencer: Cache miss at [0x13a7720, line 0x13a7700]
160570472000: system.ruby.cp_cntrl0.sequencer: Cache miss at [0x13a7720, line 0x13a7700]
160570474000: system.ruby.cp_cntrl0.sequencer: Cache miss at [0x13a7720, line 0x13a7700]
160570476000: system.ruby.cp_cntrl0.sequencer: Cache miss at [0x38a58, line 0x38a40]
160570478000: system.ruby.cp_cntrl0.sequencer: Cache miss at [0x3fa8740, line 0x3fa8740]
160570480000: system.ruby.cp_cntrl0.sequencer: Cache miss at [0x10dfc88, line 0x10dfc80]
160570482000: system.ruby.cp_cntrl0.sequencer: Cache miss at [0x3fa8748, line 0x3fa8740]
160570484000: system.ruby.cp_cntrl0.sequencer: Cache miss at [0x3fa8748, line 0x3fa8740]
160570486000: system.ruby.cp_cntrl0.sequencer: Cache miss at [0x3fa8740, line 0x3fa8740]
160570488000: system.ruby.cp_cntrl0.sequencer: Cache miss at [0x38a58, line 0x38a40]
160570490000: system.ruby.cp_cntrl0.sequencer: Cache miss at [0xfaa3f0, line 0xfaa3c0]
160570492000: system.ruby.cp_cntrl0.sequencer: Cache miss at [0xfaa3f0, line 0xfaa3c0]
160570494000: system.ruby.cp_cntrl0.sequencer: Cache miss at [0xfaa3f8, line 0xfaa3c0]
160570496000: system.ruby.cp_cntrl0.sequencer: Cache miss at [0xf90c20, line 0xf90c00]
160570498000: system.ruby.cp_cntrl0.sequencer: Cache miss at [0xc62610, line 0xc62600]
160570500000: system.ruby.cp_cntrl0.sequencer: Cache miss at [0x13a7710, line 0x13a7700]
160570502000: system.ruby.cp_cntrl0.sequencer: Cache miss at [0x13a7710, line 0x13a7700]
160570504000: system.ruby.cp_cntrl0.sequencer: Cache miss at [0x13a7718, line 0x13a7700]
160570506000: system.ruby.cp_cntrl0.sequencer: Cache miss at [0x13a7718, line 0x13a7700]
160570508000: system.ruby.cp_cntrl0.sequencer: Cache miss at [0x13a7718, line 0x13a7700]
160570510000: system.ruby.cp_cntrl0.sequencer: Cache miss at [0x13a7720, line 0x13a7700]
160570512000: system.ruby.cp_cntrl0.sequencer: Cache miss at [0x13a7720, line 0x13a7700]
160570514000: system.ruby.cp_cntrl0.sequencer: Cache miss at [0x13a7720, line 0x13a7700]
160570516000: system.ruby.cp_cntrl0.sequencer: Cache miss at [0x38a58, line 0x38a40]
160570518000: system.ruby.cp_cntrl0.sequencer: Cache miss at [0x3fa8740, line 0x3fa8740]
160570520000: system.ruby.cp_cntrl0.sequencer: Cache miss at [0x10dfc88, line 0x10dfc80]
160570522000: system.ruby.cp_cntrl0.sequencer: Cache miss at [0x3fa8748, line 0x3fa8740]
160570524000: system.ruby.cp_cntrl0.sequencer: Cache miss at [0x3fa8748, line 0x3fa8740]
160570526000: system.ruby.cp_cntrl0.sequencer: Cache miss at [0x3fa8740, line 0x3fa8740]
160570528000: system.ruby.cp_cntrl0.sequencer: Cache miss at [0x38a58, line 0x38a40]
160570530000: system.ruby.cp_cntrl0.sequencer: Cache miss at [0xfaa3f0, line 0xfaa3c0]
160570532000: system.ruby.cp_cntrl0.sequencer: Cache miss at [0xfaa3f0, line 0xfaa3c0]
160570534000: system.ruby.cp_cntrl0.sequencer: Cache miss at [0xfaa3f8, line 0xfaa3c0]
160570536000: system.ruby.cp_cntrl0.sequencer: Cache miss at [0xf90c20, line 0xf90c00]
160570538000: system.ruby.cp_cntrl0.sequencer: Cache miss at [0xc62610, line 0xc62600]
160570540000: system.ruby.cp_cntrl0.sequencer: Cache miss at [0x13a7710, line 0x13a7700]
160570542000: system.ruby.cp_cntrl0.sequencer: Cache miss at [0x13a7710, line 0x13a7700]
160570544000: system.ruby.cp_cntrl0.sequencer: Cache miss at [0x13a7718, line 0x13a7700]
160570546000: system.ruby.cp_cntrl0.sequencer: Cache miss at [0x13a7718, line 0x13a7700]
160570548000: system.ruby.cp_cntrl0.sequencer: Cache miss at [0x13a7718, line 0x13a7700]
160570550000: system.ruby.cp_cntrl0.sequencer: Cache miss at [0x13a7720, line 0x13a7700]
160570552000: system.ruby.cp_cntrl0.sequencer: Cache miss at [0x13a7720, line 0x13a7700]
160570554000: system.ruby.cp_cntrl0.sequencer: Cache miss at [0x13a7720, line 0x13a7700]
160570556000: system.ruby.cp_cntrl0.sequencer: Cache miss at [0x38a58, line 0x38a40]
160570558000: system.ruby.cp_cntrl0.sequencer: Cache miss at [0x3fa8740, line 0x3fa8740]
160570560000: system.ruby.cp_cntrl0.sequencer: Cache miss at [0x10dfc88, line 0x10dfc80]
160570562000: system.ruby.cp_cntrl0.sequencer: Cache miss at [0x3fa8748, line 0x3fa8740]
160570564000: system.ruby.cp_cntrl0.sequencer: Cache miss at [0x3fa8748, line 0x3fa8740]
160570566000: system.ruby.cp_cntrl0.sequencer: Cache miss at [0x3fa8740, line 0x3fa8740]
160570568000: system.ruby.cp_cntrl0.sequencer: Cache miss at [0x38a58, line 0x38a40]
160570570000: system.ruby.cp_cntrl0.sequencer: Cache miss at [0xfaa3f0, line 0xfaa3c0]
160570572000: system.ruby.cp_cntrl0.sequencer: Cache miss at [0xfaa3f0, line 0xfaa3c0]
160570574000: system.ruby.cp_cntrl0.sequencer: Cache miss at [0xfaa3f8, line 0xfaa3c0]
160570576000: system.ruby.cp_cntrl0.sequencer: Cache miss at [0xf90c20, line 0xf90c00]
160570578000: system.ruby.cp_cntrl1.sequencer: Cache hit at [0x10d5bc8, line 0x10d5bc0]
160570578000: system.ruby.cp_cntrl0.sequencer: Cache miss at [0xc62610, line 0xc62600]
160570580000: system.ruby.cp_cntrl0.sequencer: Cache miss at [0x13a7710, line 0x13a7700]
160570580000: system.ruby.cp_cntrl1.sequencer: Cache miss at [0x138bf90, line 0x138bf80]
160570582000: system.ruby.cp_cntrl1.sequencer: Cache miss at [0x138bf90, line 0x138bf80]
160570582000: system.ruby.cp_cntrl0.sequencer: Cache miss at [0x13a7710, line 0x13a7700]
160570584000: system.ruby.cp_cntrl0.sequencer: Cache miss at [0x13a7718, line 0x13a7700]
160570584000: system.ruby.cp_cntrl1.sequencer: Cache miss at [0x138bf98, line 0x138bf80]
160570586000: system.ruby.cp_cntrl1.sequencer: Cache miss at [0x10d5bd0, line 0x10d5bc0]
160570586000: system.ruby.cp_cntrl0.sequencer: Cache miss at [0x13a7718, line 0x13a7700]
160570588000: system.ruby.cp_cntrl0.sequencer: Cache miss at [0x13a7718, line 0x13a7700]
160570588000: system.ruby.cp_cntrl1.sequencer: Cache miss at [0x138bf98, line 0x138bf80]
160570590000: system.ruby.cp_cntrl1.sequencer: Cache miss at [0x138bf98, line 0x138bf80]
160570590000: system.ruby.cp_cntrl0.sequencer: Cache miss at [0x13a7720, line 0x13a7700]
160570592000: system.ruby.cp_cntrl1.sequencer: Cache miss at [0x138bfa0, line 0x138bf80]
160570592000: system.ruby.cp_cntrl0.sequencer: Cache miss at [0x13a7720, line 0x13a7700]
160570594000: system.ruby.cp_cntrl0.sequencer: Cache miss at [0x13a7720, line 0x13a7700]
160570596000: system.ruby.cp_cntrl0.sequencer: Cache miss at [0x38a58, line 0x38a40]
160570598000: system.ruby.cp_cntrl0.sequencer: Cache miss at [0x3fa8740, line 0x3fa8740]
160570600000: system.ruby.cp_cntrl0.sequencer: Cache miss at [0x10dfc88, line 0x10dfc80]
160570602000: system.ruby.cp_cntrl0.sequencer: Cache miss at [0x3fa8748, line 0x3fa8740]
160570604000: system.ruby.cp_cntrl0.sequencer: Cache miss at [0x3fa8748, line 0x3fa8740]
160570606000: system.ruby.cp_cntrl0.sequencer: Cache miss at [0x3fa8740, line 0x3fa8740]
160570608000: system.ruby.cp_cntrl0.sequencer: Cache miss at [0x38a58, line 0x38a40]
160570610000: system.ruby.cp_cntrl0.sequencer: Cache miss at [0xfaa3f0, line 0xfaa3c0]
160570612000: system.ruby.cp_cntrl0.sequencer: Cache miss at [0xfaa3f0, line 0xfaa3c0]
160570614000: system.ruby.cp_cntrl0.sequencer: Cache miss at [0xfaa3f8, line 0xfaa3c0]
160570616000: system.ruby.cp_cntrl0.sequencer: Cache miss at [0xf90c20, line 0xf90c00]
160570618000: system.ruby.cp_cntrl0.sequencer: Cache miss at [0xc62610, line 0xc62600]
160570620000: system.ruby.cp_cntrl0.sequencer: Cache miss at [0x13a7710, line 0x13a7700]
160570622000: system.ruby.cp_cntrl0.sequencer: Cache miss at [0x13a7710, line 0x13a7700]
160570624000: system.ruby.cp_cntrl0.sequencer: Cache miss at [0x13a7718, line 0x13a7700]
160570626000: system.ruby.cp_cntrl0.sequencer: Cache miss at [0x13a7718, line 0x13a7700]
160570628000: system.ruby.cp_cntrl0.sequencer: Cache miss at [0x13a7718, line 0x13a7700]
160570630000: system.ruby.cp_cntrl0.sequencer: Cache miss at [0x13a7720, line 0x13a7700]
160570632000: system.ruby.cp_cntrl0.sequencer: Cache miss at [0x13a7720, line 0x13a7700]
160570634000: system.ruby.cp_cntrl0.sequencer: Cache miss at [0x13a7720, line 0x13a7700]
160570636000: system.ruby.cp_cntrl0.sequencer: Cache miss at [0x38a58, line 0x38a40]
160570638000: system.ruby.cp_cntrl0.sequencer: Cache miss at [0x3fa8740, line 0x3fa8740]
160570640000: system.ruby.cp_cntrl0.sequencer: Cache miss at [0x10dfc88, line 0x10dfc80]
160570642000: system.ruby.cp_cntrl0.sequencer: Cache miss at [0x3fa8748, line 0x3fa8740]
160570644000: system.ruby.cp_cntrl0.sequencer: Cache miss at [0x3fa8748, line 0x3fa8740]
160570646000: system.ruby.cp_cntrl0.sequencer: Cache miss at [0x3fa8740, line 0x3fa8740]
160570648000: system.ruby.cp_cntrl0.sequencer: Cache miss at [0x38a58, line 0x38a40]
160570650000: system.ruby.cp_cntrl0.sequencer: Cache miss at [0xfaa3f0, line 0xfaa3c0]
160570652000: system.ruby.cp_cntrl0.sequencer: Cache miss at [0xfaa3f0, line 0xfaa3c0]
160570654000: system.ruby.cp_cntrl0.sequencer: Cache miss at [0xfaa3f8, line 0xfaa3c0]
160570656000: system.ruby.cp_cntrl0.sequencer: Cache miss at [0xf90c20, line 0xf90c00]
160570658000: system.ruby.cp_cntrl0.sequencer: Cache miss at [0xc62610, line 0xc62600]
160570660000: system.ruby.cp_cntrl0.sequencer: Cache miss at [0x13a7710, line 0x13a7700]
160570662000: system.ruby.cp_cntrl0.sequencer: Cache miss at [0x13a7710, line 0x13a7700]
160570664000: system.ruby.cp_cntrl0.sequencer: Cache miss at [0x13a7718, line 0x13a7700]
160570666000: system.ruby.cp_cntrl0.sequencer: Cache miss at [0x13a7718, line 0x13a7700]
160570668000: system.ruby.cp_cntrl0.sequencer: Cache miss at [0x13a7718, line 0x13a7700]
160570670000: system.ruby.cp_cntrl0.sequencer: Cache miss at [0x13a7720, line 0x13a7700]
160570672000: system.ruby.cp_cntrl0.sequencer: Cache miss at [0x13a7720, line 0x13a7700]
160570674000: system.ruby.cp_cntrl0.sequencer: Cache miss at [0x13a7720, line 0x13a7700]
160570676000: system.ruby.cp_cntrl0.sequencer: Cache miss at [0x38a58, line 0x38a40]
160570678000: system.ruby.cp_cntrl0.sequencer: Cache miss at [0x3fa8740, line 0x3fa8740]
160570680000: system.ruby.cp_cntrl0.sequencer: Cache miss at [0x10dfc88, line 0x10dfc80]
160570682000: system.ruby.cp_cntrl0.sequencer: Cache miss at [0x3fa8748, line 0x3fa8740]
160570684000: system.ruby.cp_cntrl0.sequencer: Cache miss at [0x3fa8748, line 0x3fa8740]
160570686000: system.ruby.cp_cntrl0.sequencer: Cache miss at [0x3fa8740, line 0x3fa8740]
160570688000: system.ruby.cp_cntrl0.sequencer: Cache miss at [0x38a58, line 0x38a40]
160570690000: system.ruby.cp_cntrl0.sequencer: Cache miss at [0xfaa3f0, line 0xfaa3c0]
160570692000: system.ruby.cp_cntrl0.sequencer: Cache miss at [0xfaa3f0, line 0xfaa3c0]
160570694000: system.ruby.cp_cntrl0.sequencer: Cache miss at [0xfaa3f8, line 0xfaa3c0]
160570696000: system.ruby.cp_cntrl0.sequencer: Cache miss at [0xf90c20, line 0xf90c00]
160570698000: system.ruby.cp_cntrl0.sequencer: Cache miss at [0xc62610, line 0xc62600]
160570700000: system.ruby.cp_cntrl0.sequencer: Cache miss at [0x13a7710, line 0x13a7700]
160570702000: system.ruby.cp_cntrl0.sequencer: Cache miss at [0x13a7710, line 0x13a7700]
160570704000: system.ruby.cp_cntrl0.sequencer: Cache miss at [0x13a7718, line 0x13a7700]
160570706000: system.ruby.cp_cntrl0.sequencer: Cache miss at [0x13a7718, line 0x13a7700]
160570708000: system.ruby.cp_cntrl0.sequencer: Cache miss at [0x13a7718, line 0x13a7700]
160570710000: system.ruby.cp_cntrl0.sequencer: Cache miss at [0x13a7720, line 0x13a7700]
160570712000: system.ruby.cp_cntrl0.sequencer: Cache miss at [0x13a7720, line 0x13a7700]
160570714000: system.ruby.cp_cntrl0.sequencer: Cache miss at [0x13a7720, line 0x13a7700]
160570716000: system.ruby.cp_cntrl0.sequencer: Cache miss at [0x38a58, line 0x38a40]
160570718000: system.ruby.cp_cntrl0.sequencer: Cache miss at [0x3fa8740, line 0x3fa8740]
160570720000: system.ruby.cp_cntrl0.sequencer: Cache miss at [0x10dfc88, line 0x10dfc80]
160570722000: system.ruby.cp_cntrl0.sequencer: Cache miss at [0x3fa8748, line 0x3fa8740]
160570724000: system.ruby.cp_cntrl0.sequencer: Cache miss at [0x3fa8748, line 0x3fa8740]
160570726000: system.ruby.cp_cntrl0.sequencer: Cache miss at [0x3fa8740, line 0x3fa8740]
160570728000: system.ruby.cp_cntrl0.sequencer: Cache miss at [0x38a58, line 0x38a40]
160570730000: system.ruby.cp_cntrl0.sequencer: Cache miss at [0xfaa3f0, line 0xfaa3c0]
160570732000: system.ruby.cp_cntrl0.sequencer: Cache miss at [0xfaa3f0, line 0xfaa3c0]
160570734000: system.ruby.cp_cntrl0.sequencer: Cache miss at [0xfaa3f8, line 0xfaa3c0]
160570736000: system.ruby.cp_cntrl0.sequencer: Cache miss at [0xf90c20, line 0xf90c00]
160570738000: system.ruby.cp_cntrl0.sequencer: Cache miss at [0xc62610, line 0xc62600]
160570740000: system.ruby.cp_cntrl0.sequencer: Cache miss at [0x13a7710, line 0x13a7700]
160570742000: system.ruby.cp_cntrl0.sequencer: Cache miss at [0x13a7710, line 0x13a7700]
160570744000: system.ruby.cp_cntrl0.sequencer: Cache miss at [0x13a7718, line 0x13a7700]
160570746000: system.ruby.cp_cntrl0.sequencer: Cache miss at [0x13a7718, line 0x13a7700]
160570748000: system.ruby.cp_cntrl0.sequencer: Cache miss at [0x13a7718, line 0x13a7700]
160570750000: system.ruby.cp_cntrl0.sequencer: Cache miss at [0x13a7720, line 0x13a7700]
160570752000: system.ruby.cp_cntrl0.sequencer: Cache miss at [0x13a7720, line 0x13a7700]
160570754000: system.ruby.cp_cntrl0.sequencer: Cache miss at [0x13a7720, line 0x13a7700]
160570756000: system.ruby.cp_cntrl0.sequencer: Cache miss at [0x38a58, line 0x38a40]
160570758000: system.ruby.cp_cntrl0.sequencer: Cache miss at [0x3fa8740, line 0x3fa8740]
160570760000: system.ruby.cp_cntrl0.sequencer: Cache miss at [0x10dfc88, line 0x10dfc80]
160570762000: system.ruby.cp_cntrl0.sequencer: Cache miss at [0x3fa8748, line 0x3fa8740]
160570764000: system.ruby.cp_cntrl0.sequencer: Cache miss at [0x3fa8748, line 0x3fa8740]
160570766000: system.ruby.cp_cntrl0.sequencer: Cache miss at [0x3fa8740, line 0x3fa8740]
160570768000: system.ruby.cp_cntrl0.sequencer: Cache miss at [0x38a58, line 0x38a40]
160570770000: system.ruby.cp_cntrl0.sequencer: Cache miss at [0xfaa3f0, line 0xfaa3c0]
160570772000: system.ruby.cp_cntrl0.sequencer: Cache miss at [0xfaa3f0, line 0xfaa3c0]
160570774000: system.ruby.cp_cntrl0.sequencer: Cache miss at [0xfaa3f8, line 0xfaa3c0]
160570776000: system.ruby.cp_cntrl0.sequencer: Cache miss at [0xf90c20, line 0xf90c00]
160570778000: system.ruby.cp_cntrl0.sequencer: Cache miss at [0xc62610, line 0xc62600]
160570780000: system.ruby.cp_cntrl0.sequencer: Cache miss at [0x13a7710, line 0x13a7700]
160570782000: system.ruby.cp_cntrl0.sequencer: Cache miss at [0x13a7710, line 0x13a7700]
160570784000: system.ruby.cp_cntrl0.sequencer: Cache miss at [0x13a7718, line 0x13a7700]
160570786000: system.ruby.cp_cntrl0.sequencer: Cache miss at [0x13a7718, line 0x13a7700]
160570788000: system.ruby.cp_cntrl0.sequencer: Cache miss at [0x13a7718, line 0x13a7700]
160570790000: system.ruby.cp_cntrl0.sequencer: Cache miss at [0x13a7720, line 0x13a7700]
160570792000: system.ruby.cp_cntrl0.sequencer: Cache miss at [0x13a7720, line 0x13a7700]
160570794000: system.ruby.cp_cntrl0.sequencer: Cache miss at [0x13a7720, line 0x13a7700]
160570796000: system.ruby.cp_cntrl0.sequencer: Cache miss at [0x38a58, line 0x38a40]
160570798000: system.ruby.cp_cntrl0.sequencer: Cache miss at [0x3fa8740, line 0x3fa8740]
160570800000: system.ruby.cp_cntrl0.sequencer: Cache miss at [0x10dfc88, line 0x10dfc80]
160570802000: system.ruby.cp_cntrl0.sequencer: Cache miss at [0x3fa8748, line 0x3fa8740]
160570804000: system.ruby.cp_cntrl0.sequencer: Cache miss at [0x3fa8748, line 0x3fa8740]
160570806000: system.ruby.cp_cntrl0.sequencer: Cache miss at [0x3fa8740, line 0x3fa8740]
160570808000: system.ruby.cp_cntrl0.sequencer: Cache miss at [0x38a58, line 0x38a40]
160570810000: system.ruby.cp_cntrl0.sequencer: Cache miss at [0xfaa3f0, line 0xfaa3c0]
160570812000: system.ruby.cp_cntrl0.sequencer: Cache miss at [0xfaa3f0, line 0xfaa3c0]
160570814000: system.ruby.cp_cntrl0.sequencer: Cache miss at [0xfaa3f8, line 0xfaa3c0]
160570816000: system.ruby.cp_cntrl0.sequencer: Cache miss at [0xf90c20, line 0xf90c00]
160570818000: system.ruby.cp_cntrl0.sequencer: Cache miss at [0xc62610, line 0xc62600]
160570820000: system.ruby.cp_cntrl0.sequencer: Cache miss at [0x13a7710, line 0x13a7700]
160570822000: system.ruby.cp_cntrl0.sequencer: Cache miss at [0x13a7710, line 0x13a7700]
160570824000: system.ruby.cp_cntrl0.sequencer: Cache miss at [0x13a7718, line 0x13a7700]
160570826000: system.ruby.cp_cntrl0.sequencer: Cache miss at [0x13a7718, line 0x13a7700]
160570828000: system.ruby.cp_cntrl0.sequencer: Cache miss at [0x13a7718, line 0x13a7700]
160570830000: system.ruby.cp_cntrl0.sequencer: Cache miss at [0x13a7720, line 0x13a7700]
160570832000: system.ruby.cp_cntrl0.sequencer: Cache miss at [0x13a7720, line 0x13a7700]
160570834000: system.ruby.cp_cntrl0.sequencer: Cache miss at [0x13a7720, line 0x13a7700]
160570836000: system.ruby.cp_cntrl0.sequencer: Cache miss at [0x38a58, line 0x38a40]
160570838000: system.ruby.cp_cntrl0.sequencer: Cache miss at [0x3fa8740, line 0x3fa8740]
160570840000: system.ruby.cp_cntrl0.sequencer: Cache miss at [0x10dfc88, line 0x10dfc80]
160570842000: system.ruby.cp_cntrl0.sequencer: Cache miss at [0x3fa8748, line 0x3fa8740]
160570844000: system.ruby.cp_cntrl0.sequencer: Cache miss at [0x3fa8748, line 0x3fa8740]
160570846000: system.ruby.cp_cntrl0.sequencer: Cache miss at [0x3fa8740, line 0x3fa8740]
160570848000: system.ruby.cp_cntrl0.sequencer: Cache miss at [0x38a58, line 0x38a40]
160570850000: system.ruby.cp_cntrl0.sequencer: Cache miss at [0xfaa3f0, line 0xfaa3c0]
160570852000: system.ruby.cp_cntrl0.sequencer: Cache miss at [0xfaa3f0, line 0xfaa3c0]
160570854000: system.ruby.cp_cntrl0.sequencer: Cache miss at [0xfaa3f8, line 0xfaa3c0]
160570856000: system.ruby.cp_cntrl0.sequencer: Cache miss at [0xf90c20, line 0xf90c00]
160570858000: system.ruby.cp_cntrl0.sequencer: Cache miss at [0xc62610, line 0xc62600]
160570860000: system.ruby.cp_cntrl0.sequencer: Cache miss at [0x13a7710, line 0x13a7700]
160570862000: system.ruby.cp_cntrl0.sequencer: Cache miss at [0x13a7710, line 0x13a7700]
160570864000: system.ruby.cp_cntrl0.sequencer: Cache miss at [0x13a7718, line 0x13a7700]
160570866000: system.ruby.cp_cntrl0.sequencer: Cache miss at [0x13a7718, line 0x13a7700]
160570868000: system.ruby.cp_cntrl0.sequencer: Cache miss at [0x13a7718, line 0x13a7700]
160570870000: system.ruby.cp_cntrl0.sequencer: Cache miss at [0x13a7720, line 0x13a7700]
160570872000: system.ruby.cp_cntrl0.sequencer: Cache miss at [0x13a7720, line 0x13a7700]
160570874000: system.ruby.cp_cntrl0.sequencer: Cache miss at [0x13a7720, line 0x13a7700]
160570876000: system.ruby.cp_cntrl0.sequencer: Cache miss at [0x38a58, line 0x38a40]
160570878000: system.ruby.cp_cntrl0.sequencer: Cache miss at [0x3fa8740, line 0x3fa8740]
160570880000: system.ruby.cp_cntrl0.sequencer: Cache miss at [0x10dfc88, line 0x10dfc80]
160570882000: system.ruby.cp_cntrl0.sequencer: Cache miss at [0x3fa8748, line 0x3fa8740]
160570884000: system.ruby.cp_cntrl0.sequencer: Cache miss at [0x3fa8748, line 0x3fa8740]
160570886000: system.ruby.cp_cntrl0.sequencer: Cache miss at [0x3fa8740, line 0x3fa8740]
160570888000: system.ruby.cp_cntrl0.sequencer: Cache miss at [0x38a58, line 0x38a40]
160570890000: system.ruby.cp_cntrl0.sequencer: Cache miss at [0xfaa3f0, line 0xfaa3c0]
160570892000: system.ruby.cp_cntrl0.sequencer: Cache miss at [0xfaa3f0, line 0xfaa3c0]
160570894000: system.ruby.cp_cntrl0.sequencer: Cache miss at [0xfaa3f8, line 0xfaa3c0]
160570896000: system.ruby.cp_cntrl0.sequencer: Cache miss at [0xf90c20, line 0xf90c00]
160570898000: system.ruby.cp_cntrl0.sequencer: Cache miss at [0xc62610, line 0xc62600]
160570900000: system.ruby.cp_cntrl0.sequencer: Cache miss at [0x13a7710, line 0x13a7700]
160570902000: system.ruby.cp_cntrl0.sequencer: Cache miss at [0x13a7710, line 0x13a7700]
160570904000: system.ruby.cp_cntrl0.sequencer: Cache miss at [0x13a7718, line 0x13a7700]
160570906000: system.ruby.cp_cntrl0.sequencer: Cache miss at [0x13a7718, line 0x13a7700]
160570908000: system.ruby.cp_cntrl0.sequencer: Cache miss at [0x13a7718, line 0x13a7700]
160570910000: system.ruby.cp_cntrl0.sequencer: Cache miss at [0x13a7720, line 0x13a7700]
160570912000: system.ruby.cp_cntrl0.sequencer: Cache miss at [0x13a7720, line 0x13a7700]
160570913000: system.ruby.cp_cntrl1.sequencer: Cache hit at [0x10d9ac8, line 0x10d9ac0]
160570914000: system.ruby.cp_cntrl0.sequencer: Cache miss at [0x13a7720, line 0x13a7700]
160570915000: system.ruby.cp_cntrl1.sequencer: Cache miss at [0x138bfa0, line 0x138bf80]
160570916000: system.ruby.cp_cntrl0.sequencer: Cache miss at [0x38a58, line 0x38a40]
160570917000: system.ruby.cp_cntrl1.sequencer: Cache miss at [0x10d5bc8, line 0x10d5bc0]
160570918000: system.ruby.cp_cntrl0.sequencer: Cache miss at [0x3fa8740, line 0x3fa8740]
160570919000: system.ruby.cp_cntrl1.sequencer: Cache miss at [0x138bfa0, line 0x138bf80]
160570920000: system.ruby.cp_cntrl0.sequencer: Cache miss at [0x10dfc88, line 0x10dfc80]
160570921000: system.ruby.cp_cntrl1.sequencer: Cache miss at [0x138bfa8, line 0x138bf80]
160570922000: system.ruby.cp_cntrl0.sequencer: Cache miss at [0x3fa8748, line 0x3fa8740]
160570923000: system.ruby.cp_cntrl1.sequencer: Cache miss at [0x138bfa8, line 0x138bf80]
160570924000: system.ruby.cp_cntrl0.sequencer: Cache miss at [0x3fa8748, line 0x3fa8740]
160570925000: system.ruby.cp_cntrl1.sequencer: Cache miss at [0x138bfa8, line 0x138bf80]
160570926000: system.ruby.cp_cntrl0.sequencer: Cache miss at [0x3fa8740, line 0x3fa8740]
160570927000: system.ruby.cp_cntrl1.sequencer: Cache miss at [0x138bfb0, line 0x138bf80]
160570928000: system.ruby.cp_cntrl0.sequencer: Cache miss at [0x38a58, line 0x38a40]
160570929000: system.ruby.cp_cntrl1.sequencer: Cache miss at [0x138bfb0, line 0x138bf80]
160570930000: system.ruby.cp_cntrl0.sequencer: Cache miss at [0xfaa3f0, line 0xfaa3c0]
160570931000: system.ruby.cp_cntrl1.sequencer: Cache miss at [0x138bfb0, line 0x138bf80]
160570932000: system.ruby.cp_cntrl0.sequencer: Cache miss at [0xfaa3f0, line 0xfaa3c0]
160570933000: system.ruby.cp_cntrl1.sequencer: Cache miss at [0x138bfb8, line 0x138bf80]
160570934000: system.ruby.cp_cntrl0.sequencer: Cache miss at [0xfaa3f8, line 0xfaa3c0]
160570935000: system.ruby.cp_cntrl1.sequencer: Cache miss at [0x138bfb8, line 0x138bf80]
160570936000: system.ruby.cp_cntrl0.sequencer: Cache miss at [0xf90c20, line 0xf90c00]
160570937000: system.ruby.cp_cntrl1.sequencer: Cache miss at [0x138bfc0, line 0x138bfc0]
160570938000: system.ruby.cp_cntrl0.sequencer: Cache miss at [0xc62610, line 0xc62600]
160570939000: system.ruby.cp_cntrl1.sequencer: Cache miss at [0x138bfc0, line 0x138bfc0]
160570940000: system.ruby.cp_cntrl0.sequencer: Cache miss at [0x13a7710, line 0x13a7700]
160570942000: system.ruby.cp_cntrl0.sequencer: Cache miss at [0x13a7710, line 0x13a7700]
160570944000: system.ruby.cp_cntrl0.sequencer: Cache miss at [0x13a7718, line 0x13a7700]
160570946000: system.ruby.cp_cntrl0.sequencer: Cache miss at [0x13a7718, line 0x13a7700]
160570948000: system.ruby.cp_cntrl0.sequencer: Cache miss at [0x13a7718, line 0x13a7700]
160570950000: system.ruby.cp_cntrl0.sequencer: Cache miss at [0x13a7720, line 0x13a7700]
160570952000: system.ruby.cp_cntrl0.sequencer: Cache miss at [0x13a7720, line 0x13a7700]
160570954000: system.ruby.cp_cntrl0.sequencer: Cache miss at [0x13a7720, line 0x13a7700]
160570956000: system.ruby.cp_cntrl0.sequencer: Cache miss at [0x38a58, line 0x38a40]
160570958000: system.ruby.cp_cntrl0.sequencer: Cache miss at [0x3fa8740, line 0x3fa8740]
160570960000: system.ruby.cp_cntrl0.sequencer: Cache miss at [0x10dfc88, line 0x10dfc80]
160570962000: system.ruby.cp_cntrl0.sequencer: Cache miss at [0x3fa8748, line 0x3fa8740]
160570964000: system.ruby.cp_cntrl0.sequencer: Cache miss at [0x3fa8748, line 0x3fa8740]
160570966000: system.ruby.cp_cntrl0.sequencer: Cache miss at [0x3fa8740, line 0x3fa8740]
160570968000: system.ruby.cp_cntrl0.sequencer: Cache miss at [0x38a58, line 0x38a40]
160570970000: system.ruby.cp_cntrl0.sequencer: Cache miss at [0xfaa3f0, line 0xfaa3c0]
160570972000: system.ruby.cp_cntrl0.sequencer: Cache miss at [0xfaa3f0, line 0xfaa3c0]
160570974000: system.ruby.cp_cntrl0.sequencer: Cache miss at [0xfaa3f8, line 0xfaa3c0]
160570976000: system.ruby.cp_cntrl0.sequencer: Cache miss at [0xf90c20, line 0xf90c00]
160570978000: system.ruby.cp_cntrl0.sequencer: Cache miss at [0xc62610, line 0xc62600]
160570980000: system.ruby.cp_cntrl0.sequencer: Cache miss at [0x13a7710, line 0x13a7700]
160570982000: system.ruby.cp_cntrl0.sequencer: Cache miss at [0x13a7710, line 0x13a7700]
160570982175: system.ruby.sqc_cntrl0.sequencer: Cache hit at [0x401d000, line 0x401d000]
160570984000: system.ruby.cp_cntrl0.sequencer: Cache miss at [0x13a7718, line 0x13a7700]
160570986000: system.ruby.cp_cntrl0.sequencer: Cache miss at [0x13a7718, line 0x13a7700]
160570988000: system.ruby.cp_cntrl0.sequencer: Cache miss at [0x13a7718, line 0x13a7700]
160570990000: system.ruby.cp_cntrl0.sequencer: Cache miss at [0x13a7720, line 0x13a7700]
160570992000: system.ruby.cp_cntrl0.sequencer: Cache miss at [0x13a7720, line 0x13a7700]
160570994000: system.ruby.cp_cntrl0.sequencer: Cache miss at [0x13a7720, line 0x13a7700]
160570996000: system.ruby.cp_cntrl0.sequencer: Cache miss at [0x38a58, line 0x38a40]
160570998000: system.ruby.cp_cntrl0.sequencer: Cache miss at [0x3fa8740, line 0x3fa8740]
160571000000: system.ruby.cp_cntrl0.sequencer: Cache miss at [0x10dfc88, line 0x10dfc80]
160571002000: system.ruby.cp_cntrl0.sequencer: Cache miss at [0x3fa8748, line 0x3fa8740]
160571004000: system.ruby.cp_cntrl0.sequencer: Cache miss at [0x3fa8748, line 0x3fa8740]
160571006000: system.ruby.cp_cntrl0.sequencer: Cache miss at [0x3fa8740, line 0x3fa8740]
160571008000: system.ruby.cp_cntrl0.sequencer: Cache miss at [0x38a58, line 0x38a40]
160571010000: system.ruby.cp_cntrl0.sequencer: Cache miss at [0xfaa3f0, line 0xfaa3c0]
160571012000: system.ruby.cp_cntrl0.sequencer: Cache miss at [0xfaa3f0, line 0xfaa3c0]
160571014000: system.ruby.cp_cntrl0.sequencer: Cache miss at [0xfaa3f8, line 0xfaa3c0]
160571016000: system.ruby.cp_cntrl0.sequencer: Cache miss at [0xf90c20, line 0xf90c00]
160571018000: system.ruby.cp_cntrl0.sequencer: Cache miss at [0xc62610, line 0xc62600]
160571020000: system.ruby.cp_cntrl0.sequencer: Cache miss at [0x13a7710, line 0x13a7700]
160571022000: system.ruby.cp_cntrl0.sequencer: Cache miss at [0x13a7710, line 0x13a7700]
160571024000: system.ruby.cp_cntrl0.sequencer: Cache miss at [0x13a7718, line 0x13a7700]
160571026000: system.ruby.cp_cntrl0.sequencer: Cache miss at [0x13a7718, line 0x13a7700]
160571028000: system.ruby.cp_cntrl0.sequencer: Cache miss at [0x13a7718, line 0x13a7700]
160571030000: system.ruby.cp_cntrl0.sequencer: Cache miss at [0x13a7720, line 0x13a7700]
160571032000: system.ruby.cp_cntrl0.sequencer: Cache miss at [0x13a7720, line 0x13a7700]
160571034000: system.ruby.cp_cntrl0.sequencer: Cache miss at [0x13a7720, line 0x13a7700]
160571036000: system.ruby.cp_cntrl0.sequencer: Cache miss at [0x38a58, line 0x38a40]
160571038000: system.ruby.cp_cntrl0.sequencer: Cache miss at [0x3fa8740, line 0x3fa8740]
160571040000: system.ruby.cp_cntrl0.sequencer: Cache miss at [0x10dfc88, line 0x10dfc80]
160571042000: system.ruby.cp_cntrl0.sequencer: Cache miss at [0x3fa8748, line 0x3fa8740]
160571044000: system.ruby.cp_cntrl0.sequencer: Cache miss at [0x3fa8748, line 0x3fa8740]
160571046000: system.ruby.cp_cntrl0.sequencer: Cache miss at [0x3fa8740, line 0x3fa8740]
160571048000: system.ruby.cp_cntrl0.sequencer: Cache miss at [0x38a58, line 0x38a40]
160571050000: system.ruby.cp_cntrl0.sequencer: Cache miss at [0xfaa3f0, line 0xfaa3c0]
160571052000: system.ruby.cp_cntrl0.sequencer: Cache miss at [0xfaa3f0, line 0xfaa3c0]
160571054000: system.ruby.cp_cntrl0.sequencer: Cache miss at [0xfaa3f8, line 0xfaa3c0]
160571056000: system.ruby.cp_cntrl0.sequencer: Cache miss at [0xf90c20, line 0xf90c00]
160571058000: system.ruby.cp_cntrl0.sequencer: Cache miss at [0xc62610, line 0xc62600]
160571060000: system.ruby.cp_cntrl0.sequencer: Cache miss at [0x13a7710, line 0x13a7700]
160571062000: system.ruby.cp_cntrl0.sequencer: Cache miss at [0x13a7710, line 0x13a7700]
160571064000: system.ruby.cp_cntrl0.sequencer: Cache miss at [0x13a7718, line 0x13a7700]
160571066000: system.ruby.cp_cntrl0.sequencer: Cache miss at [0x13a7718, line 0x13a7700]
160571068000: system.ruby.cp_cntrl0.sequencer: Cache miss at [0x13a7718, line 0x13a7700]
160571070000: system.ruby.cp_cntrl0.sequencer: Cache miss at [0x13a7720, line 0x13a7700]
160571072000: system.ruby.cp_cntrl0.sequencer: Cache miss at [0x13a7720, line 0x13a7700]
160571074000: system.ruby.cp_cntrl0.sequencer: Cache miss at [0x13a7720, line 0x13a7700]
160571076000: system.ruby.cp_cntrl0.sequencer: Cache miss at [0x38a58, line 0x38a40]
160571078000: system.ruby.cp_cntrl0.sequencer: Cache miss at [0x3fa8740, line 0x3fa8740]
160571080000: system.ruby.cp_cntrl0.sequencer: Cache miss at [0x10dfc88, line 0x10dfc80]
160571082000: system.ruby.cp_cntrl0.sequencer: Cache miss at [0x3fa8748, line 0x3fa8740]
160571084000: system.ruby.cp_cntrl0.sequencer: Cache miss at [0x3fa8748, line 0x3fa8740]
160571086000: system.ruby.cp_cntrl0.sequencer: Cache miss at [0x3fa8740, line 0x3fa8740]
160571088000: system.ruby.cp_cntrl0.sequencer: Cache miss at [0x38a58, line 0x38a40]
160571090000: system.ruby.cp_cntrl0.sequencer: Cache miss at [0xfaa3f0, line 0xfaa3c0]
160571092000: system.ruby.cp_cntrl0.sequencer: Cache miss at [0xfaa3f0, line 0xfaa3c0]
160571094000: system.ruby.cp_cntrl0.sequencer: Cache miss at [0xfaa3f8, line 0xfaa3c0]
160571096000: system.ruby.cp_cntrl0.sequencer: Cache miss at [0xf90c20, line 0xf90c00]
160571098000: system.ruby.cp_cntrl0.sequencer: Cache miss at [0xc62610, line 0xc62600]
160571100000: system.ruby.cp_cntrl0.sequencer: Cache miss at [0x13a7710, line 0x13a7700]
160571102000: system.ruby.cp_cntrl0.sequencer: Cache miss at [0x13a7710, line 0x13a7700]
160571104000: system.ruby.cp_cntrl0.sequencer: Cache miss at [0x13a7718, line 0x13a7700]
160571106000: system.ruby.cp_cntrl0.sequencer: Cache miss at [0x13a7718, line 0x13a7700]
160571108000: system.ruby.cp_cntrl0.sequencer: Cache miss at [0x13a7718, line 0x13a7700]
160571110000: system.ruby.cp_cntrl0.sequencer: Cache miss at [0x13a7720, line 0x13a7700]
160571112000: system.ruby.cp_cntrl0.sequencer: Cache miss at [0x13a7720, line 0x13a7700]
160571114000: system.ruby.cp_cntrl0.sequencer: Cache miss at [0x13a7720, line 0x13a7700]
160571116000: system.ruby.cp_cntrl0.sequencer: Cache miss at [0x38a58, line 0x38a40]
160571118000: system.ruby.cp_cntrl0.sequencer: Cache miss at [0x3fa8740, line 0x3fa8740]
160571120000: system.ruby.cp_cntrl0.sequencer: Cache miss at [0x10dfc88, line 0x10dfc80]
160571122000: system.ruby.cp_cntrl0.sequencer: Cache miss at [0x3fa8748, line 0x3fa8740]
160571124000: system.ruby.cp_cntrl0.sequencer: Cache miss at [0x3fa8748, line 0x3fa8740]
160571126000: system.ruby.cp_cntrl0.sequencer: Cache miss at [0x3fa8740, line 0x3fa8740]
160571128000: system.ruby.cp_cntrl0.sequencer: Cache miss at [0x38a58, line 0x38a40]
160571130000: system.ruby.cp_cntrl0.sequencer: Cache miss at [0xfaa3f0, line 0xfaa3c0]
160571132000: system.ruby.cp_cntrl0.sequencer: Cache miss at [0xfaa3f0, line 0xfaa3c0]
160571134000: system.ruby.cp_cntrl0.sequencer: Cache miss at [0xfaa3f8, line 0xfaa3c0]
160571136000: system.ruby.cp_cntrl0.sequencer: Cache miss at [0xf90c20, line 0xf90c00]
160571138000: system.ruby.cp_cntrl0.sequencer: Cache miss at [0xc62610, line 0xc62600]
160571140000: system.ruby.cp_cntrl0.sequencer: Cache miss at [0x13a7710, line 0x13a7700]
160571142000: system.ruby.cp_cntrl0.sequencer: Cache miss at [0x13a7710, line 0x13a7700]
160571144000: system.ruby.cp_cntrl0.sequencer: Cache miss at [0x13a7718, line 0x13a7700]
160571146000: system.ruby.cp_cntrl0.sequencer: Cache miss at [0x13a7718, line 0x13a7700]
160571148000: system.ruby.cp_cntrl0.sequencer: Cache miss at [0x13a7718, line 0x13a7700]
160571150000: system.ruby.cp_cntrl0.sequencer: Cache miss at [0x13a7720, line 0x13a7700]
160571152000: system.ruby.cp_cntrl0.sequencer: Cache miss at [0x13a7720, line 0x13a7700]
160571154000: system.ruby.cp_cntrl0.sequencer: Cache miss at [0x13a7720, line 0x13a7700]
160571156000: system.ruby.cp_cntrl0.sequencer: Cache miss at [0x38a58, line 0x38a40]
160571158000: system.ruby.cp_cntrl0.sequencer: Cache miss at [0x3fa8740, line 0x3fa8740]
160571160000: system.ruby.cp_cntrl0.sequencer: Cache miss at [0x10dfc88, line 0x10dfc80]
160571162000: system.ruby.cp_cntrl0.sequencer: Cache miss at [0x3fa8748, line 0x3fa8740]
160571164000: system.ruby.cp_cntrl0.sequencer: Cache miss at [0x3fa8748, line 0x3fa8740]
160571166000: system.ruby.cp_cntrl0.sequencer: Cache miss at [0x3fa8740, line 0x3fa8740]
160571168000: system.ruby.cp_cntrl0.sequencer: Cache miss at [0x38a58, line 0x38a40]
160571170000: system.ruby.cp_cntrl0.sequencer: Cache miss at [0xfaa3f0, line 0xfaa3c0]
160571172000: system.ruby.cp_cntrl0.sequencer: Cache miss at [0xfaa3f0, line 0xfaa3c0]
160571174000: system.ruby.cp_cntrl0.sequencer: Cache miss at [0xfaa3f8, line 0xfaa3c0]
160571176000: system.ruby.cp_cntrl0.sequencer: Cache miss at [0xf90c20, line 0xf90c00]
160571178000: system.ruby.cp_cntrl0.sequencer: Cache miss at [0xc62610, line 0xc62600]
160571180000: system.ruby.cp_cntrl0.sequencer: Cache miss at [0x13a7710, line 0x13a7700]
160571182000: system.ruby.cp_cntrl0.sequencer: Cache miss at [0x13a7710, line 0x13a7700]
160571184000: system.ruby.cp_cntrl0.sequencer: Cache miss at [0x13a7718, line 0x13a7700]
160571186000: system.ruby.cp_cntrl0.sequencer: Cache miss at [0x13a7718, line 0x13a7700]
160571188000: system.ruby.cp_cntrl0.sequencer: Cache miss at [0x13a7718, line 0x13a7700]
160571190000: system.ruby.cp_cntrl0.sequencer: Cache miss at [0x13a7720, line 0x13a7700]
160571192000: system.ruby.cp_cntrl0.sequencer: Cache miss at [0x13a7720, line 0x13a7700]
160571194000: system.ruby.cp_cntrl0.sequencer: Cache miss at [0x13a7720, line 0x13a7700]
160571196000: system.ruby.cp_cntrl0.sequencer: Cache miss at [0x38a58, line 0x38a40]
160571198000: system.ruby.cp_cntrl0.sequencer: Cache miss at [0x3fa8740, line 0x3fa8740]
160571200000: system.ruby.cp_cntrl0.sequencer: Cache miss at [0x10dfc88, line 0x10dfc80]
160571202000: system.ruby.cp_cntrl0.sequencer: Cache miss at [0x3fa8748, line 0x3fa8740]
160571204000: system.ruby.cp_cntrl0.sequencer: Cache miss at [0x3fa8748, line 0x3fa8740]
160571206000: system.ruby.cp_cntrl0.sequencer: Cache miss at [0x3fa8740, line 0x3fa8740]
160571208000: system.ruby.cp_cntrl0.sequencer: Cache miss at [0x38a58, line 0x38a40]
160571210000: system.ruby.cp_cntrl0.sequencer: Cache miss at [0xfaa3f0, line 0xfaa3c0]
160571212000: system.ruby.cp_cntrl0.sequencer: Cache miss at [0xfaa3f0, line 0xfaa3c0]
160571214000: system.ruby.cp_cntrl0.sequencer: Cache miss at [0xfaa3f8, line 0xfaa3c0]
160571216000: system.ruby.cp_cntrl0.sequencer: Cache miss at [0xf90c20, line 0xf90c00]
160571218000: system.ruby.cp_cntrl0.sequencer: Cache miss at [0xc62610, line 0xc62600]
160571220000: system.ruby.cp_cntrl0.sequencer: Cache miss at [0x13a7710, line 0x13a7700]
160571222000: system.ruby.cp_cntrl0.sequencer: Cache miss at [0x13a7710, line 0x13a7700]
160571224000: system.ruby.cp_cntrl0.sequencer: Cache miss at [0x13a7718, line 0x13a7700]
160571226000: system.ruby.cp_cntrl0.sequencer: Cache miss at [0x13a7718, line 0x13a7700]
160571228000: system.ruby.cp_cntrl0.sequencer: Cache miss at [0x13a7718, line 0x13a7700]
160571230000: system.ruby.cp_cntrl0.sequencer: Cache miss at [0x13a7720, line 0x13a7700]
160571232000: system.ruby.cp_cntrl0.sequencer: Cache miss at [0x13a7720, line 0x13a7700]
160571234000: system.ruby.cp_cntrl0.sequencer: Cache miss at [0x13a7720, line 0x13a7700]
160571236000: system.ruby.cp_cntrl0.sequencer: Cache miss at [0x38a58, line 0x38a40]
160571238000: system.ruby.cp_cntrl0.sequencer: Cache miss at [0x3fa8740, line 0x3fa8740]
160571240000: system.ruby.cp_cntrl0.sequencer: Cache miss at [0x10dfc88, line 0x10dfc80]
160571242000: system.ruby.cp_cntrl0.sequencer: Cache miss at [0x3fa8748, line 0x3fa8740]
160571244000: system.ruby.cp_cntrl0.sequencer: Cache miss at [0x3fa8748, line 0x3fa8740]
160571246000: system.ruby.cp_cntrl0.sequencer: Cache miss at [0x3fa8740, line 0x3fa8740]
160571248000: system.ruby.cp_cntrl0.sequencer: Cache miss at [0x38a58, line 0x38a40]
160571250000: system.ruby.cp_cntrl0.sequencer: Cache miss at [0xfaa3f0, line 0xfaa3c0]
160571252000: system.ruby.cp_cntrl0.sequencer: Cache miss at [0xfaa3f0, line 0xfaa3c0]
160571254000: system.ruby.cp_cntrl0.sequencer: Cache miss at [0xfaa3f8, line 0xfaa3c0]
160571256000: system.ruby.cp_cntrl0.sequencer: Cache miss at [0xf90c20, line 0xf90c00]
160571258000: system.ruby.cp_cntrl1.sequencer: Cache hit at [0x10dfdc0, line 0x10dfdc0]
160571258000: system.ruby.cp_cntrl0.sequencer: Cache miss at [0xc62610, line 0xc62600]
160571260000: system.ruby.cp_cntrl0.sequencer: Cache miss at [0x13a7710, line 0x13a7700]
160571260000: system.ruby.cp_cntrl1.sequencer: Cache miss at [0x138bfc0, line 0x138bfc0]
160571262000: system.ruby.cp_cntrl1.sequencer: Cache miss at [0x138bfc8, line 0x138bfc0]
160571262000: system.ruby.cp_cntrl0.sequencer: Cache miss at [0x13a7710, line 0x13a7700]
160571264000: system.ruby.cp_cntrl0.sequencer: Cache miss at [0x13a7718, line 0x13a7700]
160571264000: system.ruby.cp_cntrl1.sequencer: Cache miss at [0x138bfc8, line 0x138bfc0]
160571266000: system.ruby.cp_cntrl0.sequencer: Cache miss at [0x13a7718, line 0x13a7700]
160571268000: system.ruby.cp_cntrl0.sequencer: Cache miss at [0x13a7718, line 0x13a7700]
160571270000: system.ruby.cp_cntrl0.sequencer: Cache miss at [0x13a7720, line 0x13a7700]
160571272000: system.ruby.cp_cntrl0.sequencer: Cache miss at [0x13a7720, line 0x13a7700]
160571274000: system.ruby.cp_cntrl0.sequencer: Cache miss at [0x13a7720, line 0x13a7700]
160571276000: system.ruby.cp_cntrl0.sequencer: Cache miss at [0x38a58, line 0x38a40]
160571278000: system.ruby.cp_cntrl0.sequencer: Cache miss at [0x3fa8740, line 0x3fa8740]
160571280000: system.ruby.cp_cntrl0.sequencer: Cache miss at [0x10dfc88, line 0x10dfc80]
160571282000: system.ruby.cp_cntrl0.sequencer: Cache miss at [0x3fa8748, line 0x3fa8740]
160571284000: system.ruby.cp_cntrl0.sequencer: Cache miss at [0x3fa8748, line 0x3fa8740]
160571286000: system.ruby.cp_cntrl0.sequencer: Cache miss at [0x3fa8740, line 0x3fa8740]
160571288000: system.ruby.cp_cntrl0.sequencer: Cache miss at [0x38a58, line 0x38a40]
160571290000: system.ruby.cp_cntrl0.sequencer: Cache miss at [0xfaa3f0, line 0xfaa3c0]
160571292000: system.ruby.cp_cntrl0.sequencer: Cache miss at [0xfaa3f0, line 0xfaa3c0]
160571294000: system.ruby.cp_cntrl0.sequencer: Cache miss at [0xfaa3f8, line 0xfaa3c0]
160571296000: system.ruby.cp_cntrl0.sequencer: Cache miss at [0xf90c20, line 0xf90c00]
160571298000: system.ruby.cp_cntrl0.sequencer: Cache miss at [0xc62610, line 0xc62600]
160571300000: system.ruby.cp_cntrl0.sequencer: Cache miss at [0x13a7710, line 0x13a7700]
160571302000: system.ruby.cp_cntrl0.sequencer: Cache miss at [0x13a7710, line 0x13a7700]
160571304000: system.ruby.cp_cntrl0.sequencer: Cache miss at [0x13a7718, line 0x13a7700]
160571306000: system.ruby.cp_cntrl0.sequencer: Cache miss at [0x13a7718, line 0x13a7700]
160571308000: system.ruby.cp_cntrl0.sequencer: Cache miss at [0x13a7718, line 0x13a7700]
160571310000: system.ruby.cp_cntrl0.sequencer: Cache miss at [0x13a7720, line 0x13a7700]
160571312000: system.ruby.cp_cntrl0.sequencer: Cache miss at [0x13a7720, line 0x13a7700]
160571314000: system.ruby.cp_cntrl0.sequencer: Cache miss at [0x13a7720, line 0x13a7700]
160571316000: system.ruby.cp_cntrl0.sequencer: Cache miss at [0x38a58, line 0x38a40]
160571318000: system.ruby.cp_cntrl0.sequencer: Cache miss at [0x3fa8740, line 0x3fa8740]
160571320000: system.ruby.cp_cntrl0.sequencer: Cache miss at [0x10dfc88, line 0x10dfc80]
160571322000: system.ruby.cp_cntrl0.sequencer: Cache miss at [0x3fa8748, line 0x3fa8740]
160571324000: system.ruby.cp_cntrl0.sequencer: Cache miss at [0x3fa8748, line 0x3fa8740]
160571326000: system.ruby.cp_cntrl0.sequencer: Cache miss at [0x3fa8740, line 0x3fa8740]
160571328000: system.ruby.cp_cntrl0.sequencer: Cache miss at [0x38a58, line 0x38a40]
160571330000: system.ruby.cp_cntrl0.sequencer: Cache miss at [0xfaa3f0, line 0xfaa3c0]
160571332000: system.ruby.cp_cntrl0.sequencer: Cache miss at [0xfaa3f0, line 0xfaa3c0]
160571334000: system.ruby.cp_cntrl0.sequencer: Cache miss at [0xfaa3f8, line 0xfaa3c0]
160571336000: system.ruby.cp_cntrl0.sequencer: Cache miss at [0xf90c20, line 0xf90c00]
160571338000: system.ruby.cp_cntrl0.sequencer: Cache miss at [0xc62610, line 0xc62600]
160571340000: system.ruby.cp_cntrl0.sequencer: Cache miss at [0x13a7710, line 0x13a7700]
160571342000: system.ruby.cp_cntrl0.sequencer: Cache miss at [0x13a7710, line 0x13a7700]
160571344000: system.ruby.cp_cntrl0.sequencer: Cache miss at [0x13a7718, line 0x13a7700]
160571346000: system.ruby.cp_cntrl0.sequencer: Cache miss at [0x13a7718, line 0x13a7700]
160571348000: system.ruby.cp_cntrl0.sequencer: Cache miss at [0x13a7718, line 0x13a7700]
160571350000: system.ruby.cp_cntrl0.sequencer: Cache miss at [0x13a7720, line 0x13a7700]
160571352000: system.ruby.cp_cntrl0.sequencer: Cache miss at [0x13a7720, line 0x13a7700]
160571354000: system.ruby.cp_cntrl0.sequencer: Cache miss at [0x13a7720, line 0x13a7700]
160571356000: system.ruby.cp_cntrl0.sequencer: Cache miss at [0x38a58, line 0x38a40]
160571358000: system.ruby.cp_cntrl0.sequencer: Cache miss at [0x3fa8740, line 0x3fa8740]
160571360000: system.ruby.cp_cntrl0.sequencer: Cache miss at [0x10dfc88, line 0x10dfc80]
160571362000: system.ruby.cp_cntrl0.sequencer: Cache miss at [0x3fa8748, line 0x3fa8740]
160571364000: system.ruby.cp_cntrl0.sequencer: Cache miss at [0x3fa8748, line 0x3fa8740]
160571366000: system.ruby.cp_cntrl0.sequencer: Cache miss at [0x3fa8740, line 0x3fa8740]
160571368000: system.ruby.cp_cntrl0.sequencer: Cache miss at [0x38a58, line 0x38a40]
160571370000: system.ruby.cp_cntrl0.sequencer: Cache miss at [0xfaa3f0, line 0xfaa3c0]
160571372000: system.ruby.cp_cntrl0.sequencer: Cache miss at [0xfaa3f0, line 0xfaa3c0]
160571374000: system.ruby.cp_cntrl0.sequencer: Cache miss at [0xfaa3f8, line 0xfaa3c0]
160571376000: system.ruby.cp_cntrl0.sequencer: Cache miss at [0xf90c20, line 0xf90c00]
160571378000: system.ruby.cp_cntrl0.sequencer: Cache miss at [0xc62610, line 0xc62600]
160571380000: system.ruby.cp_cntrl0.sequencer: Cache miss at [0x13a7710, line 0x13a7700]
160571382000: system.ruby.cp_cntrl0.sequencer: Cache miss at [0x13a7710, line 0x13a7700]
160571384000: system.ruby.cp_cntrl0.sequencer: Cache miss at [0x13a7718, line 0x13a7700]
160571386000: system.ruby.cp_cntrl0.sequencer: Cache miss at [0x13a7718, line 0x13a7700]
160571388000: system.ruby.cp_cntrl0.sequencer: Cache miss at [0x13a7718, line 0x13a7700]
160571390000: system.ruby.cp_cntrl0.sequencer: Cache miss at [0x13a7720, line 0x13a7700]
160571392000: system.ruby.cp_cntrl0.sequencer: Cache miss at [0x13a7720, line 0x13a7700]
160571394000: system.ruby.cp_cntrl0.sequencer: Cache miss at [0x13a7720, line 0x13a7700]
160571396000: system.ruby.cp_cntrl0.sequencer: Cache miss at [0x38a58, line 0x38a40]
160571398000: system.ruby.cp_cntrl0.sequencer: Cache miss at [0x3fa8740, line 0x3fa8740]
160571400000: system.ruby.cp_cntrl0.sequencer: Cache miss at [0x10dfc88, line 0x10dfc80]
160571402000: system.ruby.cp_cntrl0.sequencer: Cache miss at [0x3fa8748, line 0x3fa8740]
160571404000: system.ruby.cp_cntrl0.sequencer: Cache miss at [0x3fa8748, line 0x3fa8740]
160571406000: system.ruby.cp_cntrl0.sequencer: Cache miss at [0x3fa8740, line 0x3fa8740]
160571408000: system.ruby.cp_cntrl0.sequencer: Cache miss at [0x38a58, line 0x38a40]
160571410000: system.ruby.cp_cntrl0.sequencer: Cache miss at [0xfaa3f0, line 0xfaa3c0]
160571412000: system.ruby.cp_cntrl0.sequencer: Cache miss at [0xfaa3f0, line 0xfaa3c0]
160571414000: system.ruby.cp_cntrl0.sequencer: Cache miss at [0xfaa3f8, line 0xfaa3c0]
160571416000: system.ruby.cp_cntrl0.sequencer: Cache miss at [0xf90c20, line 0xf90c00]
160571418000: system.ruby.cp_cntrl0.sequencer: Cache miss at [0xc62610, line 0xc62600]
160571420000: system.ruby.cp_cntrl0.sequencer: Cache miss at [0x13a7710, line 0x13a7700]
160571422000: system.ruby.cp_cntrl0.sequencer: Cache miss at [0x13a7710, line 0x13a7700]
160571424000: system.ruby.cp_cntrl0.sequencer: Cache miss at [0x13a7718, line 0x13a7700]
160571426000: system.ruby.cp_cntrl0.sequencer: Cache miss at [0x13a7718, line 0x13a7700]
160571428000: system.ruby.cp_cntrl0.sequencer: Cache miss at [0x13a7718, line 0x13a7700]
160571430000: system.ruby.cp_cntrl0.sequencer: Cache miss at [0x13a7720, line 0x13a7700]
160571432000: system.ruby.cp_cntrl0.sequencer: Cache miss at [0x13a7720, line 0x13a7700]
160571434000: system.ruby.cp_cntrl0.sequencer: Cache miss at [0x13a7720, line 0x13a7700]
160571436000: system.ruby.cp_cntrl0.sequencer: Cache miss at [0x38a58, line 0x38a40]
160571438000: system.ruby.cp_cntrl0.sequencer: Cache miss at [0x3fa8740, line 0x3fa8740]
160571440000: system.ruby.cp_cntrl0.sequencer: Cache miss at [0x10dfc88, line 0x10dfc80]
160571442000: system.ruby.cp_cntrl0.sequencer: Cache miss at [0x3fa8748, line 0x3fa8740]
160571444000: system.ruby.cp_cntrl0.sequencer: Cache miss at [0x3fa8748, line 0x3fa8740]
160571446000: system.ruby.cp_cntrl0.sequencer: Cache miss at [0x3fa8740, line 0x3fa8740]
160571448000: system.ruby.cp_cntrl0.sequencer: Cache miss at [0x38a58, line 0x38a40]
160571450000: system.ruby.cp_cntrl0.sequencer: Cache miss at [0xfaa3f0, line 0xfaa3c0]
160571452000: system.ruby.cp_cntrl0.sequencer: Cache miss at [0xfaa3f0, line 0xfaa3c0]
160571454000: system.ruby.cp_cntrl0.sequencer: Cache miss at [0xfaa3f8, line 0xfaa3c0]
160571456000: system.ruby.cp_cntrl0.sequencer: Cache miss at [0xf90c20, line 0xf90c00]
160571458000: system.ruby.cp_cntrl0.sequencer: Cache miss at [0xc62610, line 0xc62600]
160571460000: system.ruby.cp_cntrl0.sequencer: Cache miss at [0x13a7710, line 0x13a7700]
160571462000: system.ruby.cp_cntrl0.sequencer: Cache miss at [0x13a7710, line 0x13a7700]
160571464000: system.ruby.cp_cntrl0.sequencer: Cache miss at [0x13a7718, line 0x13a7700]
160571466000: system.ruby.cp_cntrl0.sequencer: Cache miss at [0x13a7718, line 0x13a7700]
160571468000: system.ruby.cp_cntrl0.sequencer: Cache miss at [0x13a7718, line 0x13a7700]
160571470000: system.ruby.cp_cntrl0.sequencer: Cache miss at [0x13a7720, line 0x13a7700]
160571472000: system.ruby.cp_cntrl0.sequencer: Cache miss at [0x13a7720, line 0x13a7700]
160571474000: system.ruby.cp_cntrl0.sequencer: Cache miss at [0x13a7720, line 0x13a7700]
160571476000: system.ruby.cp_cntrl0.sequencer: Cache miss at [0x38a58, line 0x38a40]
160571478000: system.ruby.cp_cntrl0.sequencer: Cache miss at [0x3fa8740, line 0x3fa8740]
160571480000: system.ruby.cp_cntrl0.sequencer: Cache miss at [0x10dfc88, line 0x10dfc80]
160571482000: system.ruby.cp_cntrl0.sequencer: Cache miss at [0x3fa8748, line 0x3fa8740]
160571484000: system.ruby.cp_cntrl0.sequencer: Cache miss at [0x3fa8748, line 0x3fa8740]
160571486000: system.ruby.cp_cntrl0.sequencer: Cache miss at [0x3fa8740, line 0x3fa8740]
160571488000: system.ruby.cp_cntrl0.sequencer: Cache miss at [0x38a58, line 0x38a40]
160571490000: system.ruby.cp_cntrl0.sequencer: Cache miss at [0xfaa3f0, line 0xfaa3c0]
160571492000: system.ruby.cp_cntrl0.sequencer: Cache miss at [0xfaa3f0, line 0xfaa3c0]
160571494000: system.ruby.cp_cntrl0.sequencer: Cache miss at [0xfaa3f8, line 0xfaa3c0]
160571496000: system.ruby.cp_cntrl0.sequencer: Cache miss at [0xf90c20, line 0xf90c00]
160571498000: system.ruby.cp_cntrl0.sequencer: Cache miss at [0xc62610, line 0xc62600]
160571500000: system.ruby.cp_cntrl0.sequencer: Cache miss at [0x13a7710, line 0x13a7700]
160571502000: system.ruby.cp_cntrl0.sequencer: Cache miss at [0x13a7710, line 0x13a7700]
160571504000: system.ruby.cp_cntrl0.sequencer: Cache miss at [0x13a7718, line 0x13a7700]
160571506000: system.ruby.cp_cntrl0.sequencer: Cache miss at [0x13a7718, line 0x13a7700]
160571508000: system.ruby.cp_cntrl0.sequencer: Cache miss at [0x13a7718, line 0x13a7700]
160571510000: system.ruby.cp_cntrl0.sequencer: Cache miss at [0x13a7720, line 0x13a7700]
160571512000: system.ruby.cp_cntrl0.sequencer: Cache miss at [0x13a7720, line 0x13a7700]
160571514000: system.ruby.cp_cntrl0.sequencer: Cache miss at [0x13a7720, line 0x13a7700]
160571516000: system.ruby.cp_cntrl0.sequencer: Cache miss at [0x38a58, line 0x38a40]
160571518000: system.ruby.cp_cntrl0.sequencer: Cache miss at [0x3fa8740, line 0x3fa8740]
160571520000: system.ruby.cp_cntrl0.sequencer: Cache miss at [0x10dfc88, line 0x10dfc80]
160571522000: system.ruby.cp_cntrl0.sequencer: Cache miss at [0x3fa8748, line 0x3fa8740]
160571524000: system.ruby.cp_cntrl0.sequencer: Cache miss at [0x3fa8748, line 0x3fa8740]
160571526000: system.ruby.cp_cntrl0.sequencer: Cache miss at [0x3fa8740, line 0x3fa8740]
160571527185: system.ruby.sqc_cntrl0.sequencer: Cache hit at [0x401d040, line 0x401d040]
160571528000: system.ruby.cp_cntrl0.sequencer: Cache miss at [0x38a58, line 0x38a40]
160571530000: system.ruby.cp_cntrl0.sequencer: Cache miss at [0xfaa3f0, line 0xfaa3c0]
160571532000: system.ruby.cp_cntrl0.sequencer: Cache miss at [0xfaa3f0, line 0xfaa3c0]
160571534000: system.ruby.cp_cntrl0.sequencer: Cache miss at [0xfaa3f8, line 0xfaa3c0]
160571536000: system.ruby.cp_cntrl0.sequencer: Cache miss at [0xf90c20, line 0xf90c00]
160571538000: system.ruby.cp_cntrl0.sequencer: Cache miss at [0xc62610, line 0xc62600]
160571540000: system.ruby.cp_cntrl0.sequencer: Cache miss at [0x13a7710, line 0x13a7700]
160571542000: system.ruby.cp_cntrl0.sequencer: Cache miss at [0x13a7710, line 0x13a7700]
160571544000: system.ruby.cp_cntrl0.sequencer: Cache miss at [0x13a7718, line 0x13a7700]
160571546000: system.ruby.cp_cntrl0.sequencer: Cache miss at [0x13a7718, line 0x13a7700]
160571548000: system.ruby.cp_cntrl0.sequencer: Cache miss at [0x13a7718, line 0x13a7700]
160571550000: system.ruby.cp_cntrl0.sequencer: Cache miss at [0x13a7720, line 0x13a7700]
160571552000: system.ruby.cp_cntrl0.sequencer: Cache miss at [0x13a7720, line 0x13a7700]
160571554000: system.ruby.cp_cntrl0.sequencer: Cache miss at [0x13a7720, line 0x13a7700]
160571556000: system.ruby.cp_cntrl0.sequencer: Cache miss at [0x38a58, line 0x38a40]
160571558000: system.ruby.cp_cntrl0.sequencer: Cache miss at [0x3fa8740, line 0x3fa8740]
160571560000: system.ruby.cp_cntrl0.sequencer: Cache miss at [0x10dfc88, line 0x10dfc80]
160571562000: system.ruby.cp_cntrl0.sequencer: Cache miss at [0x3fa8748, line 0x3fa8740]
160571564000: system.ruby.cp_cntrl0.sequencer: Cache miss at [0x3fa8748, line 0x3fa8740]
160571566000: system.ruby.cp_cntrl0.sequencer: Cache miss at [0x3fa8740, line 0x3fa8740]
160571568000: system.ruby.cp_cntrl0.sequencer: Cache miss at [0x38a58, line 0x38a40]
160571570000: system.ruby.cp_cntrl0.sequencer: Cache miss at [0xfaa3f0, line 0xfaa3c0]
160571572000: system.ruby.cp_cntrl0.sequencer: Cache miss at [0xfaa3f0, line 0xfaa3c0]
160571574000: system.ruby.cp_cntrl0.sequencer: Cache miss at [0xfaa3f8, line 0xfaa3c0]
160571576000: system.ruby.cp_cntrl0.sequencer: Cache miss at [0xf90c20, line 0xf90c00]
160571578000: system.ruby.cp_cntrl0.sequencer: Cache miss at [0xc62610, line 0xc62600]
160571580000: system.ruby.cp_cntrl0.sequencer: Cache miss at [0x13a7710, line 0x13a7700]
160571582000: system.ruby.cp_cntrl0.sequencer: Cache miss at [0x13a7710, line 0x13a7700]
160571583000: system.ruby.cp_cntrl1.sequencer: Cache hit at [0x10d5bc8, line 0x10d5bc0]
160571584000: system.ruby.cp_cntrl0.sequencer: Cache miss at [0x13a7718, line 0x13a7700]
160571585000: system.ruby.cp_cntrl1.sequencer: Cache miss at [0x10d5bc8, line 0x10d5bc0]
160571586000: system.ruby.cp_cntrl0.sequencer: Cache miss at [0x13a7718, line 0x13a7700]
160571587000: system.ruby.cp_cntrl1.sequencer: Cache miss at [0x138bfd0, line 0x138bfc0]
160571588000: system.ruby.cp_cntrl0.sequencer: Cache miss at [0x13a7718, line 0x13a7700]
160571589000: system.ruby.cp_cntrl1.sequencer: Cache miss at [0x138bfd0, line 0x138bfc0]
160571590000: system.ruby.cp_cntrl0.sequencer: Cache miss at [0x13a7720, line 0x13a7700]
160571591000: system.ruby.cp_cntrl1.sequencer: Cache miss at [0x138bfd0, line 0x138bfc0]
160571592000: system.ruby.cp_cntrl0.sequencer: Cache miss at [0x13a7720, line 0x13a7700]
160571593000: system.ruby.cp_cntrl1.sequencer: Cache miss at [0x138bfd8, line 0x138bfc0]
160571594000: system.ruby.cp_cntrl0.sequencer: Cache miss at [0x13a7720, line 0x13a7700]
160571595000: system.ruby.cp_cntrl1.sequencer: Cache miss at [0x138bfd8, line 0x138bfc0]
160571596000: system.ruby.cp_cntrl0.sequencer: Cache miss at [0x38a58, line 0x38a40]
160571597000: system.ruby.cp_cntrl1.sequencer: Cache miss at [0x139cc68, line 0x139cc40]
160571598000: system.ruby.cp_cntrl0.sequencer: Cache miss at [0x3fa8740, line 0x3fa8740]
160571599000: system.ruby.cp_cntrl1.sequencer: Cache miss at [0xf9b290, line 0xf9b280]
160571600000: system.ruby.cp_cntrl0.sequencer: Cache miss at [0x10dfc88, line 0x10dfc80]
160571601000: system.ruby.cp_cntrl1.sequencer: Cache miss at [0xf9b290, line 0xf9b280]
160571602000: system.ruby.cp_cntrl0.sequencer: Cache miss at [0x3fa8748, line 0x3fa8740]
160571603000: system.ruby.cp_cntrl1.sequencer: Cache miss at [0xf9b298, line 0xf9b280]
160571604000: system.ruby.cp_cntrl0.sequencer: Cache miss at [0x3fa8748, line 0x3fa8740]
160571605000: system.ruby.cp_cntrl1.sequencer: Cache miss at [0xfaa0d0, line 0xfaa0c0]
160571606000: system.ruby.cp_cntrl0.sequencer: Cache miss at [0x3fa8740, line 0x3fa8740]
160571607000: system.ruby.cp_cntrl1.sequencer: Cache miss at [0xfaa0d0, line 0xfaa0c0]
160571608000: system.ruby.cp_cntrl0.sequencer: Cache miss at [0x38a58, line 0x38a40]
160571609000: system.ruby.cp_cntrl1.sequencer: Cache miss at [0xfaa0d8, line 0xfaa0c0]
160571610000: system.ruby.cp_cntrl0.sequencer: Cache miss at [0xfaa3f0, line 0xfaa3c0]
160571612000: system.ruby.cp_cntrl0.sequencer: Cache miss at [0xfaa3f0, line 0xfaa3c0]
160571614000: system.ruby.cp_cntrl0.sequencer: Cache miss at [0xfaa3f8, line 0xfaa3c0]
160571616000: system.ruby.cp_cntrl0.sequencer: Cache miss at [0xf90c20, line 0xf90c00]
160571618000: system.ruby.cp_cntrl0.sequencer: Cache miss at [0xc62610, line 0xc62600]
160571620000: system.ruby.cp_cntrl0.sequencer: Cache miss at [0x13a7710, line 0x13a7700]
160571622000: system.ruby.cp_cntrl0.sequencer: Cache miss at [0x13a7710, line 0x13a7700]
160571624000: system.ruby.cp_cntrl0.sequencer: Cache miss at [0x13a7718, line 0x13a7700]
160571626000: system.ruby.cp_cntrl0.sequencer: Cache miss at [0x13a7718, line 0x13a7700]
160571628000: system.ruby.cp_cntrl0.sequencer: Cache miss at [0x13a7718, line 0x13a7700]
160571629000: system.ruby.cp_cntrl1.sequencer: Cache miss at [0xfa80a0, line 0xfa8080]
160571630000: system.ruby.cp_cntrl0.sequencer: Cache miss at [0x13a7720, line 0x13a7700]
160571631000: system.ruby.cp_cntrl1.sequencer: Cache miss at [0x4aea0, line 0x4ae80]
160571632000: system.ruby.cp_cntrl0.sequencer: Cache miss at [0x13a7720, line 0x13a7700]
160571633000: system.ruby.cp_cntrl1.sequencer: Cache miss at [0xc906d0, line 0xc906c0]
160571634000: system.ruby.cp_cntrl0.sequencer: Cache miss at [0x13a7720, line 0x13a7700]
160571635000: system.ruby.cp_cntrl1.sequencer: Cache miss at [0xc906d0, line 0xc906c0]
160571636000: system.ruby.cp_cntrl0.sequencer: Cache miss at [0x38a58, line 0x38a40]
160571637000: system.ruby.cp_cntrl1.sequencer: Cache miss at [0xc906d8, line 0xc906c0]
160571638000: system.ruby.cp_cntrl0.sequencer: Cache miss at [0x3fa8740, line 0x3fa8740]
160571639000: system.ruby.cp_cntrl1.sequencer: Cache miss at [0x53ef8, line 0x53ec0]
160571640000: system.ruby.cp_cntrl0.sequencer: Cache miss at [0x10dfc88, line 0x10dfc80]
160571641000: system.ruby.cp_cntrl1.sequencer: Cache miss at [0xc906d8, line 0xc906c0]
160571642000: system.ruby.cp_cntrl0.sequencer: Cache miss at [0x3fa8748, line 0x3fa8740]
160571643000: system.ruby.cp_cntrl1.sequencer: Cache miss at [0xc906e0, line 0xc906c0]
160571644000: system.ruby.cp_cntrl0.sequencer: Cache miss at [0x3fa8748, line 0x3fa8740]
160571645000: system.ruby.cp_cntrl1.sequencer: Cache miss at [0xc84e48, line 0xc84e40]
160571646000: system.ruby.cp_cntrl0.sequencer: Cache miss at [0x3fa8740, line 0x3fa8740]
160571647000: system.ruby.cp_cntrl1.sequencer: Cache miss at [0xc906e0, line 0xc906c0]
160571648000: system.ruby.cp_cntrl0.sequencer: Cache miss at [0x38a58, line 0x38a40]
160571649000: system.ruby.cp_cntrl1.sequencer: Cache miss at [0xc906e0, line 0xc906c0]
160571650000: system.ruby.cp_cntrl0.sequencer: Cache miss at [0xfaa3f0, line 0xfaa3c0]
160571651000: system.ruby.cp_cntrl1.sequencer: Cache miss at [0xc906e8, line 0xc906c0]
160571652000: system.ruby.cp_cntrl0.sequencer: Cache miss at [0xfaa3f0, line 0xfaa3c0]
160571653000: system.ruby.cp_cntrl1.sequencer: Cache miss at [0xc906e8, line 0xc906c0]
160571654000: system.ruby.cp_cntrl0.sequencer: Cache miss at [0xfaa3f8, line 0xfaa3c0]
160571655000: system.ruby.cp_cntrl1.sequencer: Cache miss at [0xc906e8, line 0xc906c0]
160571656000: system.ruby.cp_cntrl0.sequencer: Cache miss at [0xf90c20, line 0xf90c00]
160571657000: system.ruby.cp_cntrl1.sequencer: Cache miss at [0xc906f0, line 0xc906c0]
160571658000: system.ruby.cp_cntrl0.sequencer: Cache miss at [0xc62610, line 0xc62600]
160571660000: system.ruby.cp_cntrl0.sequencer: Cache miss at [0x13a7710, line 0x13a7700]
160571662000: system.ruby.cp_cntrl0.sequencer: Cache miss at [0x13a7710, line 0x13a7700]
160571664000: system.ruby.cp_cntrl0.sequencer: Cache miss at [0x13a7718, line 0x13a7700]
160571666000: system.ruby.cp_cntrl0.sequencer: Cache miss at [0x13a7718, line 0x13a7700]
160571668000: system.ruby.cp_cntrl0.sequencer: Cache miss at [0x13a7718, line 0x13a7700]
160571670000: system.ruby.cp_cntrl0.sequencer: Cache miss at [0x13a7720, line 0x13a7700]
160571672000: system.ruby.cp_cntrl0.sequencer: Cache miss at [0x13a7720, line 0x13a7700]
160571674000: system.ruby.cp_cntrl0.sequencer: Cache miss at [0x13a7720, line 0x13a7700]
160571676000: system.ruby.cp_cntrl0.sequencer: Cache miss at [0x38a58, line 0x38a40]
160571678000: system.ruby.cp_cntrl0.sequencer: Cache miss at [0x3fa8740, line 0x3fa8740]
160571680000: system.ruby.cp_cntrl0.sequencer: Cache miss at [0x10dfc88, line 0x10dfc80]
160571682000: system.ruby.cp_cntrl0.sequencer: Cache miss at [0x3fa8748, line 0x3fa8740]
160571684000: system.ruby.cp_cntrl0.sequencer: Cache miss at [0x3fa8748, line 0x3fa8740]
160571686000: system.ruby.cp_cntrl0.sequencer: Cache miss at [0x3fa8740, line 0x3fa8740]
160571688000: system.ruby.cp_cntrl0.sequencer: Cache miss at [0x38a58, line 0x38a40]
160571690000: system.ruby.cp_cntrl0.sequencer: Cache miss at [0xfaa3f0, line 0xfaa3c0]
160571692000: system.ruby.cp_cntrl0.sequencer: Cache miss at [0xfaa3f0, line 0xfaa3c0]
160571694000: system.ruby.cp_cntrl0.sequencer: Cache miss at [0xfaa3f8, line 0xfaa3c0]
160571696000: system.ruby.cp_cntrl0.sequencer: Cache miss at [0xf90c20, line 0xf90c00]
160571698000: system.ruby.cp_cntrl0.sequencer: Cache miss at [0xc62610, line 0xc62600]
160571700000: system.ruby.cp_cntrl0.sequencer: Cache miss at [0x13a7710, line 0x13a7700]
160571702000: system.ruby.cp_cntrl0.sequencer: Cache miss at [0x13a7710, line 0x13a7700]
160571704000: system.ruby.cp_cntrl0.sequencer: Cache miss at [0x13a7718, line 0x13a7700]
160571706000: system.ruby.cp_cntrl0.sequencer: Cache miss at [0x13a7718, line 0x13a7700]
160571708000: system.ruby.cp_cntrl0.sequencer: Cache miss at [0x13a7718, line 0x13a7700]
160571710000: system.ruby.cp_cntrl0.sequencer: Cache miss at [0x13a7720, line 0x13a7700]
160571712000: system.ruby.cp_cntrl0.sequencer: Cache miss at [0x13a7720, line 0x13a7700]
160571714000: system.ruby.cp_cntrl0.sequencer: Cache miss at [0x13a7720, line 0x13a7700]
160571716000: system.ruby.cp_cntrl0.sequencer: Cache miss at [0x38a58, line 0x38a40]
160571718000: system.ruby.cp_cntrl0.sequencer: Cache miss at [0x3fa8740, line 0x3fa8740]
160571720000: system.ruby.cp_cntrl0.sequencer: Cache miss at [0x10dfc88, line 0x10dfc80]
160571722000: system.ruby.cp_cntrl0.sequencer: Cache miss at [0x3fa8748, line 0x3fa8740]
160571724000: system.ruby.cp_cntrl0.sequencer: Cache miss at [0x3fa8748, line 0x3fa8740]
160571726000: system.ruby.cp_cntrl0.sequencer: Cache miss at [0x3fa8740, line 0x3fa8740]
160571728000: system.ruby.cp_cntrl0.sequencer: Cache miss at [0x38a58, line 0x38a40]
160571730000: system.ruby.cp_cntrl0.sequencer: Cache miss at [0xfaa3f0, line 0xfaa3c0]
160571732000: system.ruby.cp_cntrl0.sequencer: Cache miss at [0xfaa3f0, line 0xfaa3c0]
160571734000: system.ruby.cp_cntrl0.sequencer: Cache miss at [0xfaa3f8, line 0xfaa3c0]
160571736000: system.ruby.cp_cntrl0.sequencer: Cache miss at [0xf90c20, line 0xf90c00]
160571738000: system.ruby.cp_cntrl0.sequencer: Cache miss at [0xc62610, line 0xc62600]
160571740000: system.ruby.cp_cntrl0.sequencer: Cache miss at [0x13a7710, line 0x13a7700]
160571742000: system.ruby.cp_cntrl0.sequencer: Cache miss at [0x13a7710, line 0x13a7700]
160571744000: system.ruby.cp_cntrl0.sequencer: Cache miss at [0x13a7718, line 0x13a7700]
160571746000: system.ruby.cp_cntrl0.sequencer: Cache miss at [0x13a7718, line 0x13a7700]
160571748000: system.ruby.cp_cntrl0.sequencer: Cache miss at [0x13a7718, line 0x13a7700]
160571750000: system.ruby.cp_cntrl0.sequencer: Cache miss at [0x13a7720, line 0x13a7700]
160571752000: system.ruby.cp_cntrl0.sequencer: Cache miss at [0x13a7720, line 0x13a7700]
160571754000: system.ruby.cp_cntrl0.sequencer: Cache miss at [0x13a7720, line 0x13a7700]
160571756000: system.ruby.cp_cntrl0.sequencer: Cache miss at [0x38a58, line 0x38a40]
160571758000: system.ruby.cp_cntrl0.sequencer: Cache miss at [0x3fa8740, line 0x3fa8740]
160571760000: system.ruby.cp_cntrl0.sequencer: Cache miss at [0x10dfc88, line 0x10dfc80]
160571762000: system.ruby.cp_cntrl0.sequencer: Cache miss at [0x3fa8748, line 0x3fa8740]
160571764000: system.ruby.cp_cntrl0.sequencer: Cache miss at [0x3fa8748, line 0x3fa8740]
160571766000: system.ruby.cp_cntrl0.sequencer: Cache miss at [0x3fa8740, line 0x3fa8740]
160571768000: system.ruby.cp_cntrl0.sequencer: Cache miss at [0x38a58, line 0x38a40]
160571770000: system.ruby.cp_cntrl0.sequencer: Cache miss at [0xfaa3f0, line 0xfaa3c0]
160571772000: system.ruby.cp_cntrl0.sequencer: Cache miss at [0xfaa3f0, line 0xfaa3c0]
160571774000: system.ruby.cp_cntrl0.sequencer: Cache miss at [0xfaa3f8, line 0xfaa3c0]
160571776000: system.ruby.cp_cntrl0.sequencer: Cache miss at [0xf90c20, line 0xf90c00]
160571778000: system.ruby.cp_cntrl0.sequencer: Cache miss at [0xc62610, line 0xc62600]
160571780000: system.ruby.cp_cntrl0.sequencer: Cache miss at [0x13a7710, line 0x13a7700]
160571782000: system.ruby.cp_cntrl0.sequencer: Cache miss at [0x13a7710, line 0x13a7700]
160571784000: system.ruby.cp_cntrl0.sequencer: Cache miss at [0x13a7718, line 0x13a7700]
160571786000: system.ruby.cp_cntrl0.sequencer: Cache miss at [0x13a7718, line 0x13a7700]
160571788000: system.ruby.cp_cntrl0.sequencer: Cache miss at [0x13a7718, line 0x13a7700]
160571790000: system.ruby.cp_cntrl0.sequencer: Cache miss at [0x13a7720, line 0x13a7700]
160571792000: system.ruby.cp_cntrl0.sequencer: Cache miss at [0x13a7720, line 0x13a7700]
160571794000: system.ruby.cp_cntrl0.sequencer: Cache miss at [0x13a7720, line 0x13a7700]
160571796000: system.ruby.cp_cntrl0.sequencer: Cache miss at [0x38a58, line 0x38a40]
160571798000: system.ruby.cp_cntrl0.sequencer: Cache miss at [0x3fa8740, line 0x3fa8740]
160571800000: system.ruby.cp_cntrl0.sequencer: Cache miss at [0x10dfc88, line 0x10dfc80]
160571802000: system.ruby.cp_cntrl0.sequencer: Cache miss at [0x3fa8748, line 0x3fa8740]
160571804000: system.ruby.cp_cntrl0.sequencer: Cache miss at [0x3fa8748, line 0x3fa8740]
160571806000: system.ruby.cp_cntrl0.sequencer: Cache miss at [0x3fa8740, line 0x3fa8740]
160571808000: system.ruby.cp_cntrl0.sequencer: Cache miss at [0x38a58, line 0x38a40]
160571810000: system.ruby.cp_cntrl0.sequencer: Cache miss at [0xfaa3f0, line 0xfaa3c0]
160571812000: system.ruby.cp_cntrl0.sequencer: Cache miss at [0xfaa3f0, line 0xfaa3c0]
160571814000: system.ruby.cp_cntrl0.sequencer: Cache miss at [0xfaa3f8, line 0xfaa3c0]
160571816000: system.ruby.cp_cntrl0.sequencer: Cache miss at [0xf90c20, line 0xf90c00]
160571818000: system.ruby.cp_cntrl0.sequencer: Cache miss at [0xc62610, line 0xc62600]
160571820000: system.ruby.cp_cntrl0.sequencer: Cache miss at [0x13a7710, line 0x13a7700]
160571822000: system.ruby.cp_cntrl0.sequencer: Cache miss at [0x13a7710, line 0x13a7700]
160571824000: system.ruby.cp_cntrl0.sequencer: Cache miss at [0x13a7718, line 0x13a7700]
160571826000: system.ruby.cp_cntrl0.sequencer: Cache miss at [0x13a7718, line 0x13a7700]
160571828000: system.ruby.cp_cntrl0.sequencer: Cache miss at [0x13a7718, line 0x13a7700]
160571830000: system.ruby.cp_cntrl0.sequencer: Cache miss at [0x13a7720, line 0x13a7700]
160571832000: system.ruby.cp_cntrl0.sequencer: Cache miss at [0x13a7720, line 0x13a7700]
160571834000: system.ruby.cp_cntrl0.sequencer: Cache miss at [0x13a7720, line 0x13a7700]
160571836000: system.ruby.cp_cntrl0.sequencer: Cache miss at [0x38a58, line 0x38a40]
160571838000: system.ruby.cp_cntrl0.sequencer: Cache miss at [0x3fa8740, line 0x3fa8740]
160571840000: system.ruby.cp_cntrl0.sequencer: Cache miss at [0x10dfc88, line 0x10dfc80]
160571842000: system.ruby.cp_cntrl0.sequencer: Cache miss at [0x3fa8748, line 0x3fa8740]
160571844000: system.ruby.cp_cntrl0.sequencer: Cache miss at [0x3fa8748, line 0x3fa8740]
160571846000: system.ruby.cp_cntrl0.sequencer: Cache miss at [0x3fa8740, line 0x3fa8740]
160571848000: system.ruby.cp_cntrl0.sequencer: Cache miss at [0x38a58, line 0x38a40]
160571850000: system.ruby.cp_cntrl0.sequencer: Cache miss at [0xfaa3f0, line 0xfaa3c0]
160571852000: system.ruby.cp_cntrl0.sequencer: Cache miss at [0xfaa3f0, line 0xfaa3c0]
160571854000: system.ruby.cp_cntrl0.sequencer: Cache miss at [0xfaa3f8, line 0xfaa3c0]
160571856000: system.ruby.cp_cntrl0.sequencer: Cache miss at [0xf90c20, line 0xf90c00]
160571858000: system.ruby.cp_cntrl0.sequencer: Cache miss at [0xc62610, line 0xc62600]
160571860000: system.ruby.cp_cntrl0.sequencer: Cache miss at [0x13a7710, line 0x13a7700]
160571862000: system.ruby.cp_cntrl0.sequencer: Cache miss at [0x13a7710, line 0x13a7700]
160571864000: system.ruby.cp_cntrl0.sequencer: Cache miss at [0x13a7718, line 0x13a7700]
160571866000: system.ruby.cp_cntrl0.sequencer: Cache miss at [0x13a7718, line 0x13a7700]
160571868000: system.ruby.cp_cntrl0.sequencer: Cache miss at [0x13a7718, line 0x13a7700]
160571870000: system.ruby.cp_cntrl0.sequencer: Cache miss at [0x13a7720, line 0x13a7700]
160571872000: system.ruby.cp_cntrl0.sequencer: Cache miss at [0x13a7720, line 0x13a7700]
160571874000: system.ruby.cp_cntrl0.sequencer: Cache miss at [0x13a7720, line 0x13a7700]
160571876000: system.ruby.cp_cntrl0.sequencer: Cache miss at [0x38a58, line 0x38a40]
160571878000: system.ruby.cp_cntrl0.sequencer: Cache miss at [0x3fa8740, line 0x3fa8740]
160571880000: system.ruby.cp_cntrl0.sequencer: Cache miss at [0x10dfc88, line 0x10dfc80]
160571882000: system.ruby.cp_cntrl0.sequencer: Cache miss at [0x3fa8748, line 0x3fa8740]
160571884000: system.ruby.cp_cntrl0.sequencer: Cache miss at [0x3fa8748, line 0x3fa8740]
160571886000: system.ruby.cp_cntrl0.sequencer: Cache miss at [0x3fa8740, line 0x3fa8740]
160571888000: system.ruby.cp_cntrl0.sequencer: Cache miss at [0x38a58, line 0x38a40]
160571890000: system.ruby.cp_cntrl0.sequencer: Cache miss at [0xfaa3f0, line 0xfaa3c0]
160571892000: system.ruby.cp_cntrl0.sequencer: Cache miss at [0xfaa3f0, line 0xfaa3c0]
160571894000: system.ruby.cp_cntrl0.sequencer: Cache miss at [0xfaa3f8, line 0xfaa3c0]
160571896000: system.ruby.cp_cntrl0.sequencer: Cache miss at [0xf90c20, line 0xf90c00]
160571898000: system.ruby.cp_cntrl0.sequencer: Cache miss at [0xc62610, line 0xc62600]
160571900000: system.ruby.cp_cntrl0.sequencer: Cache miss at [0x13a7710, line 0x13a7700]
160571902000: system.ruby.cp_cntrl0.sequencer: Cache miss at [0x13a7710, line 0x13a7700]
160571904000: system.ruby.cp_cntrl0.sequencer: Cache miss at [0x13a7718, line 0x13a7700]
160571906000: system.ruby.cp_cntrl0.sequencer: Cache miss at [0x13a7718, line 0x13a7700]
160571908000: system.ruby.cp_cntrl0.sequencer: Cache miss at [0x13a7718, line 0x13a7700]
160571910000: system.ruby.cp_cntrl0.sequencer: Cache miss at [0x13a7720, line 0x13a7700]
160571912000: system.ruby.cp_cntrl0.sequencer: Cache miss at [0x13a7720, line 0x13a7700]
160571914000: system.ruby.cp_cntrl0.sequencer: Cache miss at [0x13a7720, line 0x13a7700]
160571916000: system.ruby.cp_cntrl0.sequencer: Cache miss at [0x38a58, line 0x38a40]
160571918000: system.ruby.cp_cntrl0.sequencer: Cache miss at [0x3fa8740, line 0x3fa8740]
160571920000: system.ruby.cp_cntrl0.sequencer: Cache miss at [0x10dfc88, line 0x10dfc80]
160571922000: system.ruby.cp_cntrl0.sequencer: Cache miss at [0x3fa8748, line 0x3fa8740]
160571924000: system.ruby.cp_cntrl0.sequencer: Cache miss at [0x3fa8748, line 0x3fa8740]
160571924010: system.ruby.scalar_cntrl0.sequencer: Cache hit at [0x3eb5000, line 0x3eb5000]
160571926000: system.ruby.cp_cntrl0.sequencer: Cache miss at [0x3fa8740, line 0x3fa8740]
160571928000: system.ruby.cp_cntrl0.sequencer: Cache miss at [0x38a58, line 0x38a40]
160571930000: system.ruby.cp_cntrl0.sequencer: Cache miss at [0xfaa3f0, line 0xfaa3c0]
160571932000: system.ruby.cp_cntrl0.sequencer: Cache miss at [0xfaa3f0, line 0xfaa3c0]
160571934000: system.ruby.cp_cntrl0.sequencer: Cache miss at [0xfaa3f8, line 0xfaa3c0]
160571936000: system.ruby.cp_cntrl0.sequencer: Cache miss at [0xf90c20, line 0xf90c00]
160571938000: system.ruby.cp_cntrl0.sequencer: Cache miss at [0xc62610, line 0xc62600]
160571940000: system.ruby.cp_cntrl0.sequencer: Cache miss at [0x13a7710, line 0x13a7700]
160571942000: system.ruby.cp_cntrl0.sequencer: Cache miss at [0x13a7710, line 0x13a7700]
160571944000: system.ruby.cp_cntrl0.sequencer: Cache miss at [0x13a7718, line 0x13a7700]
160571946000: system.ruby.cp_cntrl0.sequencer: Cache miss at [0x13a7718, line 0x13a7700]
160571948000: system.ruby.cp_cntrl0.sequencer: Cache miss at [0x13a7718, line 0x13a7700]
160571950000: system.ruby.cp_cntrl0.sequencer: Cache miss at [0x13a7720, line 0x13a7700]
160571952000: system.ruby.cp_cntrl0.sequencer: Cache miss at [0x13a7720, line 0x13a7700]
160571954000: system.ruby.cp_cntrl0.sequencer: Cache miss at [0x13a7720, line 0x13a7700]
160571956000: system.ruby.cp_cntrl0.sequencer: Cache miss at [0x38a58, line 0x38a40]
160571958000: system.ruby.cp_cntrl0.sequencer: Cache miss at [0x3fa8740, line 0x3fa8740]
160571960000: system.ruby.cp_cntrl0.sequencer: Cache miss at [0x10dfc88, line 0x10dfc80]
160571962000: system.ruby.cp_cntrl0.sequencer: Cache miss at [0x3fa8748, line 0x3fa8740]
160571964000: system.ruby.cp_cntrl0.sequencer: Cache miss at [0x3fa8748, line 0x3fa8740]
160571966000: system.ruby.cp_cntrl0.sequencer: Cache miss at [0x3fa8740, line 0x3fa8740]
160571968000: system.ruby.cp_cntrl0.sequencer: Cache miss at [0x38a58, line 0x38a40]
160571970000: system.ruby.cp_cntrl0.sequencer: Cache miss at [0xfaa3f0, line 0xfaa3c0]
160571972000: system.ruby.cp_cntrl0.sequencer: Cache miss at [0xfaa3f0, line 0xfaa3c0]
160571974000: system.ruby.cp_cntrl0.sequencer: Cache miss at [0xfaa3f8, line 0xfaa3c0]
160571976000: system.ruby.cp_cntrl1.sequencer: Cache hit at [0x10d9ab8, line 0x10d9a80]
160571976000: system.ruby.cp_cntrl0.sequencer: Cache miss at [0xf90c20, line 0xf90c00]
160571978000: system.ruby.cp_cntrl0.sequencer: Cache miss at [0xc62610, line 0xc62600]
160571978000: system.ruby.cp_cntrl1.sequencer: Cache miss at [0xc906f0, line 0xc906c0]
160571980000: system.ruby.cp_cntrl1.sequencer: Cache miss at [0xc906f8, line 0xc906c0]
160571980000: system.ruby.cp_cntrl0.sequencer: Cache miss at [0x13a7710, line 0x13a7700]
160571982000: system.ruby.cp_cntrl0.sequencer: Cache miss at [0x13a7710, line 0x13a7700]
160571982000: system.ruby.cp_cntrl1.sequencer: Cache miss at [0xc906f8, line 0xc906c0]
160571984000: system.ruby.cp_cntrl1.sequencer: Cache miss at [0xc906f8, line 0xc906c0]
160571984000: system.ruby.cp_cntrl0.sequencer: Cache miss at [0x13a7718, line 0x13a7700]
160571986000: system.ruby.cp_cntrl0.sequencer: Cache miss at [0x13a7718, line 0x13a7700]
160571986000: system.ruby.cp_cntrl1.sequencer: Cache miss at [0xc90700, line 0xc90700]
160571988000: system.ruby.cp_cntrl1.sequencer: Cache miss at [0x53d78, line 0x53d40]
160571988000: system.ruby.cp_cntrl0.sequencer: Cache miss at [0x13a7718, line 0x13a7700]
160571990000: system.ruby.cp_cntrl0.sequencer: Cache miss at [0x13a7720, line 0x13a7700]
160571990000: system.ruby.cp_cntrl1.sequencer: Cache miss at [0xc90700, line 0xc90700]
160571992000: system.ruby.cp_cntrl1.sequencer: Cache miss at [0x139b5c0, line 0x139b5c0]
160571992000: system.ruby.cp_cntrl0.sequencer: Cache miss at [0x13a7720, line 0x13a7700]
160571994000: system.ruby.cp_cntrl0.sequencer: Cache miss at [0x13a7720, line 0x13a7700]
160571994000: system.ruby.cp_cntrl1.sequencer: Cache miss at [0xc90708, line 0xc90700]
160571996000: system.ruby.cp_cntrl1.sequencer: Cache miss at [0xc90708, line 0xc90700]
160571996000: system.ruby.cp_cntrl0.sequencer: Cache miss at [0x38a58, line 0x38a40]
160571998000: system.ruby.cp_cntrl0.sequencer: Cache miss at [0x3fa8740, line 0x3fa8740]
160571998000: system.ruby.cp_cntrl1.sequencer: Cache miss at [0xc90710, line 0xc90700]
160572000000: system.ruby.cp_cntrl1.sequencer: Cache miss at [0xc90710, line 0xc90700]
160572000000: system.ruby.cp_cntrl0.sequencer: Cache miss at [0x10dfc88, line 0x10dfc80]
160572002000: system.ruby.cp_cntrl0.sequencer: Cache miss at [0x3fa8748, line 0x3fa8740]
160572002000: system.ruby.cp_cntrl1.sequencer: Cache miss at [0xc90710, line 0xc90700]
160572004000: system.ruby.cp_cntrl1.sequencer: Cache miss at [0xc90718, line 0xc90700]
160572004000: system.ruby.cp_cntrl0.sequencer: Cache miss at [0x3fa8748, line 0x3fa8740]
160572006000: system.ruby.cp_cntrl0.sequencer: Cache miss at [0x3fa8740, line 0x3fa8740]
160572006000: system.ruby.cp_cntrl1.sequencer: Cache miss at [0xc90720, line 0xc90700]
160572008000: system.ruby.cp_cntrl1.sequencer: Cache miss at [0xc90720, line 0xc90700]
160572008000: system.ruby.cp_cntrl0.sequencer: Cache miss at [0x38a58, line 0x38a40]
160572010000: system.ruby.cp_cntrl0.sequencer: Cache miss at [0xfaa3f0, line 0xfaa3c0]
160572010000: system.ruby.cp_cntrl1.sequencer: Cache miss at [0xc90728, line 0xc90700]
160572012000: system.ruby.cp_cntrl1.sequencer: Cache miss at [0xc90728, line 0xc90700]
160572012000: system.ruby.cp_cntrl0.sequencer: Cache miss at [0xfaa3f0, line 0xfaa3c0]
160572014000: system.ruby.cp_cntrl0.sequencer: Cache miss at [0xfaa3f8, line 0xfaa3c0]
160572014000: system.ruby.cp_cntrl1.sequencer: Cache miss at [0xca2840, line 0xca2840]
160572016000: system.ruby.cp_cntrl1.sequencer: Cache miss at [0x139cc60, line 0x139cc40]
160572016000: system.ruby.cp_cntrl0.sequencer: Cache miss at [0xf90c20, line 0xf90c00]
[...]
160578191000: system.ruby.cp_cntrl0.sequencer: Cache miss at [0x3fa8748, line 0x3fa8740]
160578193000: system.ruby.cp_cntrl0.sequencer: Cache miss at [0x3fa8748, line 0x3fa8740]
160578195000: system.ruby.cp_cntrl0.sequencer: Cache miss at [0x3fa8740, line 0x3fa8740]
160578197000: system.ruby.cp_cntrl0.sequencer: Cache miss at [0x38a58, line 0x38a40]
160578199000: system.ruby.cp_cntrl0.sequencer: Cache miss at [0xfaa3f0, line 0xfaa3c0]
160578201000: system.ruby.cp_cntrl0.sequencer: Cache miss at [0xfaa3f0, line 0xfaa3c0]
160578203000: system.ruby.cp_cntrl0.sequencer: Cache miss at [0xfaa3f8, line 0xfaa3c0]
160578205000: system.ruby.cp_cntrl0.sequencer: Cache miss at [0xf90c20, line 0xf90c00]
160578207000: system.ruby.cp_cntrl0.sequencer: Cache miss at [0xc62610, line 0xc62600]
160578209000: system.ruby.cp_cntrl0.sequencer: Cache miss at [0x13a7710, line 0x13a7700]
160578211000: system.ruby.cp_cntrl0.sequencer: Cache miss at [0x13a7710, line 0x13a7700]
160578213000: system.ruby.cp_cntrl0.sequencer: Cache miss at [0x13a7718, line 0x13a7700]
160578215000: system.ruby.cp_cntrl0.sequencer: Cache miss at [0x13a7718, line 0x13a7700]
160578217000: system.ruby.cp_cntrl0.sequencer: Cache miss at [0x13a7718, line 0x13a7700]
160578219000: system.ruby.cp_cntrl0.sequencer: Cache miss at [0x13a7720, line 0x13a7700]
160578221000: system.ruby.cp_cntrl0.sequencer: Cache miss at [0x13a7720, line 0x13a7700]
160578223000: system.ruby.cp_cntrl0.sequencer: Cache miss at [0x13a7720, line 0x13a7700]
160578225000: system.ruby.cp_cntrl0.sequencer: Cache miss at [0x38a58, line 0x38a40]
160578227000: system.ruby.cp_cntrl0.sequencer: Cache miss at [0x3fa8740, line 0x3fa8740]
160578229000: system.ruby.cp_cntrl0.sequencer: Cache miss at [0x10dfc88, line 0x10dfc80]
160578231000: system.ruby.cp_cntrl0.sequencer: Cache miss at [0x3fa8748, line 0x3fa8740]
160578233000: system.ruby.cp_cntrl0.sequencer: Cache miss at [0x3fa8748, line 0x3fa8740]
160578235000: system.ruby.cp_cntrl0.sequencer: Cache miss at [0x3fa8740, line 0x3fa8740]
160578237000: system.ruby.cp_cntrl0.sequencer: Cache miss at [0x38a58, line 0x38a40]
160578239000: system.ruby.cp_cntrl0.sequencer: Cache miss at [0xfaa3f0, line 0xfaa3c0]
160578241000: system.ruby.cp_cntrl0.sequencer: Cache miss at [0xfaa3f0, line 0xfaa3c0]
160578243000: system.ruby.cp_cntrl0.sequencer: Cache miss at [0xfaa3f8, line 0xfaa3c0]
160578245000: system.ruby.cp_cntrl0.sequencer: Cache miss at [0xf90c20, line 0xf90c00]
160578247000: system.ruby.cp_cntrl0.sequencer: Cache miss at [0xc62610, line 0xc62600]
160578249000: system.ruby.cp_cntrl0.sequencer: Cache miss at [0x13a7710, line 0x13a7700]
160578251000: system.ruby.cp_cntrl0.sequencer: Cache miss at [0x13a7710, line 0x13a7700]
160578253000: system.ruby.cp_cntrl0.sequencer: Cache miss at [0x13a7718, line 0x13a7700]
160578255000: system.ruby.cp_cntrl0.sequencer: Cache miss at [0x13a7718, line 0x13a7700]
160578257000: system.ruby.cp_cntrl0.sequencer: Cache miss at [0x13a7718, line 0x13a7700]
160578259000: system.ruby.cp_cntrl0.sequencer: Cache miss at [0x13a7720, line 0x13a7700]
160578261000: system.ruby.cp_cntrl0.sequencer: Cache miss at [0x13a7720, line 0x13a7700]
160578263000: system.ruby.cp_cntrl0.sequencer: Cache miss at [0x13a7720, line 0x13a7700]
160578265000: system.ruby.cp_cntrl0.sequencer: Cache miss at [0x38a58, line 0x38a40]
160578267000: system.ruby.cp_cntrl0.sequencer: Cache miss at [0x3fa8740, line 0x3fa8740]
160578269000: system.ruby.cp_cntrl0.sequencer: Cache miss at [0x10dfc88, line 0x10dfc80]
160578271000: system.ruby.cp_cntrl0.sequencer: Cache miss at [0x3fa8748, line 0x3fa8740]
160578273000: system.ruby.cp_cntrl0.sequencer: Cache miss at [0x3fa8748, line 0x3fa8740]
160578275000: system.ruby.cp_cntrl0.sequencer: Cache miss at [0x3fa8740, line 0x3fa8740]
160578277000: system.ruby.cp_cntrl0.sequencer: Cache miss at [0x38a58, line 0x38a40]
160578279000: system.ruby.cp_cntrl0.sequencer: Cache miss at [0xfaa3f0, line 0xfaa3c0]
160578281000: system.ruby.cp_cntrl0.sequencer: Cache miss at [0xfaa3f0, line 0xfaa3c0]
160578283000: system.ruby.cp_cntrl0.sequencer: Cache miss at [0xfaa3f8, line 0xfaa3c0]
160578285000: system.ruby.cp_cntrl0.sequencer: Cache miss at [0xf90c20, line 0xf90c00]
160578287000: system.ruby.cp_cntrl0.sequencer: Cache miss at [0xc62610, line 0xc62600]
160578289000: system.ruby.cp_cntrl0.sequencer: Cache miss at [0x13a7710, line 0x13a7700]
160578291000: system.ruby.cp_cntrl0.sequencer: Cache miss at [0x13a7710, line 0x13a7700]
160578293000: system.ruby.cp_cntrl0.sequencer: Cache miss at [0x13a7718, line 0x13a7700]
160578295000: system.ruby.cp_cntrl0.sequencer: Cache miss at [0x13a7718, line 0x13a7700]
160578297000: system.ruby.cp_cntrl0.sequencer: Cache miss at [0x13a7718, line 0x13a7700]
160578299000: system.ruby.cp_cntrl0.sequencer: Cache miss at [0x13a7720, line 0x13a7700]
160578301000: system.ruby.cp_cntrl0.sequencer: Cache miss at [0x13a7720, line 0x13a7700]
160578303000: system.ruby.cp_cntrl0.sequencer: Cache miss at [0x13a7720, line 0x13a7700]
160578305000: system.ruby.cp_cntrl0.sequencer: Cache miss at [0x38a58, line 0x38a40]
160578307000: system.ruby.cp_cntrl0.sequencer: Cache miss at [0x3fa8740, line 0x3fa8740]
160578309000: system.ruby.cp_cntrl0.sequencer: Cache miss at [0x10dfc88, line 0x10dfc80]
160578311000: system.ruby.cp_cntrl0.sequencer: Cache miss at [0x3fa8748, line 0x3fa8740]
160578313000: system.ruby.cp_cntrl0.sequencer: Cache miss at [0x3fa8748, line 0x3fa8740]
160578315000: system.ruby.cp_cntrl0.sequencer: Cache miss at [0x3fa8740, line 0x3fa8740]
160578317000: system.ruby.cp_cntrl0.sequencer: Cache miss at [0x38a58, line 0x38a40]
160578319000: system.ruby.cp_cntrl0.sequencer: Cache miss at [0xfaa3f0, line 0xfaa3c0]
160578321000: system.ruby.cp_cntrl0.sequencer: Cache miss at [0xfaa3f0, line 0xfaa3c0]
160578323000: system.ruby.cp_cntrl0.sequencer: Cache miss at [0xfaa3f8, line 0xfaa3c0]
160578325000: system.ruby.cp_cntrl0.sequencer: Cache miss at [0xf90c20, line 0xf90c00]
160578327000: system.ruby.cp_cntrl0.sequencer: Cache miss at [0xc62610, line 0xc62600]
160578329000: system.ruby.cp_cntrl0.sequencer: Cache miss at [0x13a7710, line 0x13a7700]
160578331000: system.ruby.cp_cntrl0.sequencer: Cache miss at [0x13a7710, line 0x13a7700]
160578333000: system.ruby.cp_cntrl0.sequencer: Cache miss at [0x13a7718, line 0x13a7700]
160578335000: system.ruby.cp_cntrl0.sequencer: Cache miss at [0x13a7718, line 0x13a7700]
160578337000: system.ruby.cp_cntrl0.sequencer: Cache miss at [0x13a7718, line 0x13a7700]
160578339000: system.ruby.cp_cntrl0.sequencer: Cache miss at [0x13a7720, line 0x13a7700]
160578341000: system.ruby.cp_cntrl0.sequencer: Cache miss at [0x13a7720, line 0x13a7700]
160578343000: system.ruby.cp_cntrl0.sequencer: Cache miss at [0x13a7720, line 0x13a7700]
160578345000: system.ruby.cp_cntrl0.sequencer: Cache miss at [0x38a58, line 0x38a40]
160578347000: system.ruby.cp_cntrl0.sequencer: Cache miss at [0x3fa8740, line 0x3fa8740]
160578349000: system.ruby.cp_cntrl0.sequencer: Cache miss at [0x10dfc88, line 0x10dfc80]
160578351000: system.ruby.cp_cntrl0.sequencer: Cache miss at [0x3fa8748, line 0x3fa8740]
160578353000: system.ruby.cp_cntrl0.sequencer: Cache miss at [0x3fa8748, line 0x3fa8740]
160578355000: system.ruby.cp_cntrl0.sequencer: Cache miss at [0x3fa8740, line 0x3fa8740]
160578357000: system.ruby.cp_cntrl0.sequencer: Cache miss at [0x38a58, line 0x38a40]
160578359000: system.ruby.cp_cntrl0.sequencer: Cache miss at [0xfaa3f0, line 0xfaa3c0]
160578361000: system.ruby.cp_cntrl0.sequencer: Cache miss at [0xfaa3f0, line 0xfaa3c0]
160578363000: system.ruby.cp_cntrl0.sequencer: Cache miss at [0xfaa3f8, line 0xfaa3c0]
160578365000: system.ruby.cp_cntrl0.sequencer: Cache miss at [0xf90c20, line 0xf90c00]
160578367000: system.ruby.cp_cntrl0.sequencer: Cache miss at [0xc62610, line 0xc62600]
160578369000: system.ruby.cp_cntrl0.sequencer: Cache miss at [0x13a7710, line 0x13a7700]
160578371000: system.ruby.cp_cntrl0.sequencer: Cache miss at [0x13a7710, line 0x13a7700]
160578373000: system.ruby.cp_cntrl0.sequencer: Cache miss at [0x13a7718, line 0x13a7700]
160578375000: system.ruby.cp_cntrl0.sequencer: Cache miss at [0x13a7718, line 0x13a7700]
160578377000: system.ruby.cp_cntrl0.sequencer: Cache miss at [0x13a7718, line 0x13a7700]
160578379000: system.ruby.cp_cntrl0.sequencer: Cache miss at [0x13a7720, line 0x13a7700]
160578381000: system.ruby.cp_cntrl0.sequencer: Cache miss at [0x13a7720, line 0x13a7700]
160578383000: system.ruby.cp_cntrl0.sequencer: Cache miss at [0x13a7720, line 0x13a7700]
160578385000: system.ruby.cp_cntrl0.sequencer: Cache miss at [0x38a58, line 0x38a40]
160578386000: system.ruby.cp_cntrl1.sequencer: Cache hit at [0x3fab240, line 0x3fab240]
160578387000: system.ruby.cp_cntrl0.sequencer: Cache miss at [0x3fa8740, line 0x3fa8740]
160578388000: system.ruby.cp_cntrl1.sequencer: Cache miss at [0x3fab240, line 0x3fab240]
160578389000: system.ruby.cp_cntrl0.sequencer: Cache miss at [0x10dfc88, line 0x10dfc80]
160578390000: system.ruby.cp_cntrl1.sequencer: Cache miss at [0x3fab248, line 0x3fab240]
160578391000: system.ruby.cp_cntrl0.sequencer: Cache miss at [0x3fa8748, line 0x3fa8740]
160578392000: system.ruby.cp_cntrl1.sequencer: Cache miss at [0x3fab248, line 0x3fab240]
160578393000: system.ruby.cp_cntrl0.sequencer: Cache miss at [0x3fa8748, line 0x3fa8740]
160578394000: system.ruby.cp_cntrl1.sequencer: Cache miss at [0x3fab250, line 0x3fab240]
160578395000: system.ruby.cp_cntrl0.sequencer: Cache miss at [0x3fa8740, line 0x3fa8740]
160578396000: system.ruby.cp_cntrl1.sequencer: Cache miss at [0x3fab250, line 0x3fab240]
160578397000: system.ruby.cp_cntrl0.sequencer: Cache miss at [0x38a58, line 0x38a40]
160578398000: system.ruby.cp_cntrl1.sequencer: Cache miss at [0x3fab258, line 0x3fab240]
160578398640: system.ruby.tcp_cntrl0.coalescer: ReadCallBack GPU Cache miss at <extra arg>%x
160578398640: system.ruby.tcp_cntrl0.coalescer: GPU Cache miss at [0x1386380, line 0x1386380]
160578399000: system.ruby.cp_cntrl0.sequencer: Cache miss at [0xfaa3f0, line 0xfaa3c0]
160578400000: system.ruby.cp_cntrl1.sequencer: Cache miss at [0x3fab258, line 0x3fab240]
160578401000: system.ruby.cp_cntrl0.sequencer: Cache miss at [0xfaa3f0, line 0xfaa3c0]
160578402000: system.ruby.cp_cntrl1.sequencer: Cache miss at [0x3fab260, line 0x3fab240]
160578403000: system.ruby.cp_cntrl0.sequencer: Cache miss at [0xfaa3f8, line 0xfaa3c0]
160578404000: system.ruby.cp_cntrl1.sequencer: Cache miss at [0x3fab260, line 0x3fab240]
160578405000: system.ruby.cp_cntrl0.sequencer: Cache miss at [0xf90c20, line 0xf90c00]
160578406000: system.ruby.cp_cntrl1.sequencer: Cache miss at [0x139cb98, line 0x139cb80]
160578407000: system.ruby.cp_cntrl0.sequencer: Cache miss at [0xc62610, line 0xc62600]
160578408000: system.ruby.cp_cntrl1.sequencer: Cache miss at [0x3fab268, line 0x3fab240]
160578409000: system.ruby.cp_cntrl0.sequencer: Cache miss at [0x13a7710, line 0x13a7700]
160578410000: system.ruby.cp_cntrl1.sequencer: Cache miss at [0x139cbf8, line 0x139cbc0]
160578411000: system.ruby.cp_cntrl0.sequencer: Cache miss at [0x13a7710, line 0x13a7700]
160578412000: system.ruby.cp_cntrl1.sequencer: Cache miss at [0x3fab270, line 0x3fab240]
160578413000: system.ruby.cp_cntrl0.sequencer: Cache miss at [0x13a7718, line 0x13a7700]
160578414000: system.ruby.cp_cntrl1.sequencer: Cache miss at [0x139cc00, line 0x139cc00]
160578415000: system.ruby.cp_cntrl0.sequencer: Cache miss at [0x13a7718, line 0x13a7700]
160578416000: system.ruby.cp_cntrl1.sequencer: Cache miss at [0x3fab278, line 0x3fab240]
160578417000: system.ruby.cp_cntrl0.sequencer: Cache miss at [0x13a7718, line 0x13a7700]
160578418000: system.ruby.cp_cntrl1.sequencer: Cache miss at [0x10dfd28, line 0x10dfd00]
160578419000: system.ruby.cp_cntrl0.sequencer: Cache miss at [0x13a7720, line 0x13a7700]
160578420000: system.ruby.cp_cntrl1.sequencer: Cache miss at [0x3fab278, line 0x3fab240]
160578421000: system.ruby.cp_cntrl0.sequencer: Cache miss at [0x13a7720, line 0x13a7700]
160578423000: system.ruby.cp_cntrl0.sequencer: Cache miss at [0x13a7720, line 0x13a7700]
160578425000: system.ruby.cp_cntrl0.sequencer: Cache miss at [0x38a58, line 0x38a40]
160578427000: system.ruby.cp_cntrl0.sequencer: Cache miss at [0x3fa8740, line 0x3fa8740]
160578429000: system.ruby.cp_cntrl0.sequencer: Cache miss at [0x10dfc88, line 0x10dfc80]
160578431000: system.ruby.cp_cntrl0.sequencer: Cache miss at [0x3fa8748, line 0x3fa8740]
160578433000: system.ruby.cp_cntrl0.sequencer: Cache miss at [0x3fa8748, line 0x3fa8740]
160578435000: system.ruby.cp_cntrl0.sequencer: Cache miss at [0x3fa8740, line 0x3fa8740]
160578437000: system.ruby.cp_cntrl0.sequencer: Cache miss at [0x38a58, line 0x38a40]
160578439000: system.ruby.cp_cntrl0.sequencer: Cache miss at [0xfaa3f0, line 0xfaa3c0]
160578441000: system.ruby.cp_cntrl0.sequencer: Cache miss at [0xfaa3f0, line 0xfaa3c0]
160578443000: system.ruby.cp_cntrl0.sequencer: Cache miss at [0xfaa3f8, line 0xfaa3c0]
160578445000: system.ruby.cp_cntrl0.sequencer: Cache miss at [0xf90c20, line 0xf90c00]
160578447000: system.ruby.cp_cntrl0.sequencer: Cache miss at [0xc62610, line 0xc62600]
160578449000: system.ruby.cp_cntrl0.sequencer: Cache miss at [0x13a7710, line 0x13a7700]
160578451000: system.ruby.cp_cntrl0.sequencer: Cache miss at [0x13a7710, line 0x13a7700]
160578453000: system.ruby.cp_cntrl0.sequencer: Cache miss at [0x13a7718, line 0x13a7700]
160578455000: system.ruby.cp_cntrl0.sequencer: Cache miss at [0x13a7718, line 0x13a7700]
160578457000: system.ruby.cp_cntrl0.sequencer: Cache miss at [0x13a7718, line 0x13a7700]
160578459000: system.ruby.cp_cntrl0.sequencer: Cache miss at [0x13a7720, line 0x13a7700]
160578461000: system.ruby.cp_cntrl0.sequencer: Cache miss at [0x13a7720, line 0x13a7700]
160578463000: system.ruby.cp_cntrl0.sequencer: Cache miss at [0x13a7720, line 0x13a7700]
160578465000: system.ruby.cp_cntrl0.sequencer: Cache miss at [0x38a58, line 0x38a40]
160578467000: system.ruby.cp_cntrl0.sequencer: Cache miss at [0x3fa8740, line 0x3fa8740]
160578469000: system.ruby.cp_cntrl0.sequencer: Cache miss at [0x10dfc88, line 0x10dfc80]
160578471000: system.ruby.cp_cntrl0.sequencer: Cache miss at [0x3fa8748, line 0x3fa8740]
160578473000: system.ruby.cp_cntrl0.sequencer: Cache miss at [0x3fa8748, line 0x3fa8740]
160578475000: system.ruby.cp_cntrl0.sequencer: Cache miss at [0x3fa8740, line 0x3fa8740]
160578477000: system.ruby.cp_cntrl0.sequencer: Cache miss at [0x38a58, line 0x38a40]
160578479000: system.ruby.cp_cntrl0.sequencer: Cache miss at [0xfaa3f0, line 0xfaa3c0]
160578481000: system.ruby.cp_cntrl0.sequencer: Cache miss at [0xfaa3f0, line 0xfaa3c0]
160578483000: system.ruby.cp_cntrl0.sequencer: Cache miss at [0xfaa3f8, line 0xfaa3c0]
160578485000: system.ruby.cp_cntrl0.sequencer: Cache miss at [0xf90c20, line 0xf90c00]
160578487000: system.ruby.cp_cntrl0.sequencer: Cache miss at [0xc62610, line 0xc62600]
160578489000: system.ruby.cp_cntrl0.sequencer: Cache miss at [0x13a7710, line 0x13a7700]
160578491000: system.ruby.cp_cntrl0.sequencer: Cache miss at [0x13a7710, line 0x13a7700]
160578493000: system.ruby.cp_cntrl0.sequencer: Cache miss at [0x13a7718, line 0x13a7700]
160578495000: system.ruby.cp_cntrl0.sequencer: Cache miss at [0x13a7718, line 0x13a7700]
160578497000: system.ruby.cp_cntrl0.sequencer: Cache miss at [0x13a7718, line 0x13a7700]
160578499000: system.ruby.cp_cntrl0.sequencer: Cache miss at [0x13a7720, line 0x13a7700]
160578501000: system.ruby.cp_cntrl0.sequencer: Cache miss at [0x13a7720, line 0x13a7700]
160578503000: system.ruby.cp_cntrl0.sequencer: Cache miss at [0x13a7720, line 0x13a7700]
160578505000: system.ruby.cp_cntrl0.sequencer: Cache miss at [0x38a58, line 0x38a40]
160578507000: system.ruby.cp_cntrl0.sequencer: Cache miss at [0x3fa8740, line 0x3fa8740]
160578509000: system.ruby.cp_cntrl0.sequencer: Cache miss at [0x10dfc88, line 0x10dfc80]
160578511000: system.ruby.cp_cntrl0.sequencer: Cache miss at [0x3fa8748, line 0x3fa8740]
160578513000: system.ruby.cp_cntrl0.sequencer: Cache miss at [0x3fa8748, line 0x3fa8740]
160578515000: system.ruby.cp_cntrl0.sequencer: Cache miss at [0x3fa8740, line 0x3fa8740]
160578517000: system.ruby.cp_cntrl0.sequencer: Cache miss at [0x38a58, line 0x38a40]
160578519000: system.ruby.cp_cntrl0.sequencer: Cache miss at [0xfaa3f0, line 0xfaa3c0]
160578521000: system.ruby.cp_cntrl0.sequencer: Cache miss at [0xfaa3f0, line 0xfaa3c0]
160578523000: system.ruby.cp_cntrl0.sequencer: Cache miss at [0xfaa3f8, line 0xfaa3c0]
160578525000: system.ruby.cp_cntrl0.sequencer: Cache miss at [0xf90c20, line 0xf90c00]
160578527000: system.ruby.cp_cntrl0.sequencer: Cache miss at [0xc62610, line 0xc62600]
160578529000: system.ruby.cp_cntrl0.sequencer: Cache miss at [0x13a7710, line 0x13a7700]
160578531000: system.ruby.cp_cntrl0.sequencer: Cache miss at [0x13a7710, line 0x13a7700]
160578533000: system.ruby.cp_cntrl0.sequencer: Cache miss at [0x13a7718, line 0x13a7700]
160578535000: system.ruby.cp_cntrl0.sequencer: Cache miss at [0x13a7718, line 0x13a7700]
160578537000: system.ruby.cp_cntrl0.sequencer: Cache miss at [0x13a7718, line 0x13a7700]
160578539000: system.ruby.cp_cntrl0.sequencer: Cache miss at [0x13a7720, line 0x13a7700]
160578541000: system.ruby.cp_cntrl0.sequencer: Cache miss at [0x13a7720, line 0x13a7700]
160578543000: system.ruby.cp_cntrl0.sequencer: Cache miss at [0x13a7720, line 0x13a7700]
160578545000: system.ruby.cp_cntrl0.sequencer: Cache miss at [0x38a58, line 0x38a40]
160578547000: system.ruby.cp_cntrl0.sequencer: Cache miss at [0x3fa8740, line 0x3fa8740]
160578549000: system.ruby.cp_cntrl0.sequencer: Cache miss at [0x10dfc88, line 0x10dfc80]
160578551000: system.ruby.cp_cntrl0.sequencer: Cache miss at [0x3fa8748, line 0x3fa8740]
160578553000: system.ruby.cp_cntrl0.sequencer: Cache miss at [0x3fa8748, line 0x3fa8740]
160578555000: system.ruby.cp_cntrl0.sequencer: Cache miss at [0x3fa8740, line 0x3fa8740]
160578555705: system.ruby.tcp_cntrl0.coalescer: ReadCallBack GPU Cache miss at <extra arg>%x
160578555705: system.ruby.tcp_cntrl0.coalescer: GPU Cache miss at [0x138608c, line 0x1386080]
160578557000: system.ruby.cp_cntrl0.sequencer: Cache miss at [0x38a58, line 0x38a40]
160578559000: system.ruby.cp_cntrl0.sequencer: Cache miss at [0xfaa3f0, line 0xfaa3c0]
160578561000: system.ruby.cp_cntrl0.sequencer: Cache miss at [0xfaa3f0, line 0xfaa3c0]
160578563000: system.ruby.cp_cntrl0.sequencer: Cache miss at [0xfaa3f8, line 0xfaa3c0]
160578565000: system.ruby.cp_cntrl0.sequencer: Cache miss at [0xf90c20, line 0xf90c00]
160578567000: system.ruby.cp_cntrl0.sequencer: Cache miss at [0xc62610, line 0xc62600]
160578569000: system.ruby.cp_cntrl0.sequencer: Cache miss at [0x13a7710, line 0x13a7700]
160578571000: system.ruby.cp_cntrl0.sequencer: Cache miss at [0x13a7710, line 0x13a7700]
160578573000: system.ruby.cp_cntrl0.sequencer: Cache miss at [0x13a7718, line 0x13a7700]
160578575000: system.ruby.cp_cntrl0.sequencer: Cache miss at [0x13a7718, line 0x13a7700]
160578577000: system.ruby.cp_cntrl0.sequencer: Cache miss at [0x13a7718, line 0x13a7700]
160578579000: system.ruby.cp_cntrl0.sequencer: Cache miss at [0x13a7720, line 0x13a7700]
160578581000: system.ruby.cp_cntrl0.sequencer: Cache miss at [0x13a7720, line 0x13a7700]
160578583000: system.ruby.cp_cntrl0.sequencer: Cache miss at [0x13a7720, line 0x13a7700]
160578585000: system.ruby.cp_cntrl0.sequencer: Cache miss at [0x38a58, line 0x38a40]
160578587000: system.ruby.cp_cntrl0.sequencer: Cache miss at [0x3fa8740, line 0x3fa8740]
160578589000: system.ruby.cp_cntrl0.sequencer: Cache miss at [0x10dfc88, line 0x10dfc80]
160578591000: system.ruby.cp_cntrl0.sequencer: Cache miss at [0x3fa8748, line 0x3fa8740]
160578593000: system.ruby.cp_cntrl0.sequencer: Cache miss at [0x3fa8748, line 0x3fa8740]
160578595000: system.ruby.cp_cntrl0.sequencer: Cache miss at [0x3fa8740, line 0x3fa8740]
Dummy value = 0
Ticks: 167664198500
Exiting because  exiting with last active thread context
