Global frequency set at 1000000000000 ticks per second
Forcing maxCoalescedReqs to 32 (TLB assoc.) 
Forcing maxCoalescedReqs to 32 (TLB assoc.) 
Forcing maxCoalescedReqs to 32 (TLB assoc.) 
Forcing maxCoalescedReqs to 32 (TLB assoc.) 
Forcing maxCoalescedReqs to 32 (TLB assoc.) 
Forcing maxCoalescedReqs to 32 (TLB assoc.) 
Forcing maxCoalescedReqs to 32 (TLB assoc.) 
Forcing maxCoalescedReqs to 32 (TLB assoc.) 
gem5 Simulator System.  https://www.gem5.org
gem5 is copyrighted software; use the --copyright option for details.

gem5 version DEVELOP-FOR-23.1
gem5 compiled Nov 19 2023 12:06:45
gem5 started Nov 20 2023 08:08:37
gem5 executing on 9a48cf6b5dcb, pid 1
command line: build/VEGA_X86/gem5.opt --debug-flag=RubyHitMiss --debug-start=160566087076 --debug-end=160570034235 configs/example/apu_se.py -n 3 --dgpu --gfx-version=gfx900 --num-compute-units=4 --cu-per-sa=4 --num-gpu-complex=1 --reg-alloc-policy=dynamic --num-tccs=8 --num-dirs=64 --mem-size=16GB --mem-type=HBM_2000_4H_1x64 --vreg-file-size=16384 --sreg-file-size=800 --tcc-size=256kB --gpu-clock=1801MHz --ruby-clock=1000MHz --vrf_lm_bus_latency=6 --mem-req-latency=69 --mem-resp-latency=69 --mandatory_queue_latency=1 --max-cu-tokens=160 --max-coalesces-per-cycle=10 --sqc-size=16kB --tcp-size=512B --scalar-mem-req-latency=28 --TCP_latency=4 --tcp-assoc=4 --tcp-num-banks=16 --TCC_latency=121 --tcc-assoc=16 --tcc-tag-access-latency=1 --tcc-data-access-latency=1 --tcp-rp=TreePLRURP --WB_L2 --tcc-rp=TreePLRURP -c gpu_test_fewer_wait/tree_plru_test_2

info: Standard input is not a terminal, disabling listeners.
Num SQC =  1 Num scalar caches =  1 Num CU =  4
160566088000: system.ruby.cp_cntrl0.sequencer: Cache miss at [0x13a7718, line 0x13a7700]
160566090000: system.ruby.cp_cntrl0.sequencer: Cache miss at [0x13a7720, line 0x13a7700]
160566092000: system.ruby.cp_cntrl0.sequencer: Cache miss at [0x13a7720, line 0x13a7700]
160566094000: system.ruby.cp_cntrl0.sequencer: Cache miss at [0x13a7720, line 0x13a7700]
160566096000: system.ruby.cp_cntrl0.sequencer: Cache miss at [0x38a48, line 0x38a40]
160566098000: system.ruby.cp_cntrl0.sequencer: Cache miss at [0x3fa8740, line 0x3fa8740]
160566100000: system.ruby.cp_cntrl0.sequencer: Cache miss at [0x10df798, line 0x10df780]
160566102000: system.ruby.cp_cntrl0.sequencer: Cache miss at [0x3fa8748, line 0x3fa8740]
160566104000: system.ruby.cp_cntrl0.sequencer: Cache miss at [0x3fa8748, line 0x3fa8740]
160566106000: system.ruby.cp_cntrl0.sequencer: Cache miss at [0x3fa8740, line 0x3fa8740]
160566108000: system.ruby.cp_cntrl0.sequencer: Cache miss at [0x38a48, line 0x38a40]
160566110000: system.ruby.cp_cntrl0.sequencer: Cache miss at [0xfaa3f0, line 0xfaa3c0]
160566112000: system.ruby.cp_cntrl0.sequencer: Cache miss at [0xfaa3f0, line 0xfaa3c0]
160566114000: system.ruby.cp_cntrl0.sequencer: Cache miss at [0xfaa3f8, line 0xfaa3c0]
160566116000: system.ruby.cp_cntrl0.sequencer: Cache miss at [0xf90c20, line 0xf90c00]
160566118000: system.ruby.cp_cntrl0.sequencer: Cache miss at [0xc62610, line 0xc62600]
160566120000: system.ruby.cp_cntrl0.sequencer: Cache miss at [0x13a7710, line 0x13a7700]
160566122000: system.ruby.cp_cntrl0.sequencer: Cache miss at [0x13a7710, line 0x13a7700]
160566124000: system.ruby.cp_cntrl0.sequencer: Cache miss at [0x13a7718, line 0x13a7700]
160566126000: system.ruby.cp_cntrl0.sequencer: Cache miss at [0x13a7718, line 0x13a7700]
160566128000: system.ruby.cp_cntrl0.sequencer: Cache miss at [0x13a7718, line 0x13a7700]
160566130000: system.ruby.cp_cntrl0.sequencer: Cache miss at [0x13a7720, line 0x13a7700]
160566132000: system.ruby.cp_cntrl0.sequencer: Cache miss at [0x13a7720, line 0x13a7700]
160566134000: system.ruby.cp_cntrl0.sequencer: Cache miss at [0x13a7720, line 0x13a7700]
160566136000: system.ruby.cp_cntrl0.sequencer: Cache miss at [0x38a48, line 0x38a40]
160566138000: system.ruby.cp_cntrl0.sequencer: Cache miss at [0x3fa8740, line 0x3fa8740]
160566140000: system.ruby.cp_cntrl0.sequencer: Cache miss at [0x10df798, line 0x10df780]
160566142000: system.ruby.cp_cntrl0.sequencer: Cache miss at [0x3fa8748, line 0x3fa8740]
160566144000: system.ruby.cp_cntrl0.sequencer: Cache miss at [0x3fa8748, line 0x3fa8740]
160566146000: system.ruby.cp_cntrl0.sequencer: Cache miss at [0x3fa8740, line 0x3fa8740]
160566148000: system.ruby.cp_cntrl0.sequencer: Cache miss at [0x38a48, line 0x38a40]
160566150000: system.ruby.cp_cntrl0.sequencer: Cache miss at [0xfaa3f0, line 0xfaa3c0]
160566152000: system.ruby.cp_cntrl0.sequencer: Cache miss at [0xfaa3f0, line 0xfaa3c0]
160566154000: system.ruby.cp_cntrl0.sequencer: Cache miss at [0xfaa3f8, line 0xfaa3c0]
160566156000: system.ruby.cp_cntrl0.sequencer: Cache miss at [0xf90c20, line 0xf90c00]
160566158000: system.ruby.cp_cntrl0.sequencer: Cache miss at [0xc62610, line 0xc62600]
160566160000: system.ruby.cp_cntrl0.sequencer: Cache miss at [0x13a7710, line 0x13a7700]
160566162000: system.ruby.cp_cntrl0.sequencer: Cache miss at [0x13a7710, line 0x13a7700]
160566164000: system.ruby.cp_cntrl0.sequencer: Cache miss at [0x13a7718, line 0x13a7700]
160566166000: system.ruby.cp_cntrl0.sequencer: Cache miss at [0x13a7718, line 0x13a7700]
160566168000: system.ruby.cp_cntrl0.sequencer: Cache miss at [0x13a7718, line 0x13a7700]
160566170000: system.ruby.cp_cntrl0.sequencer: Cache miss at [0x13a7720, line 0x13a7700]
160566172000: system.ruby.cp_cntrl0.sequencer: Cache miss at [0x13a7720, line 0x13a7700]
160566174000: system.ruby.cp_cntrl0.sequencer: Cache miss at [0x13a7720, line 0x13a7700]
160566176000: system.ruby.cp_cntrl0.sequencer: Cache miss at [0x38a48, line 0x38a40]
160566178000: system.ruby.cp_cntrl0.sequencer: Cache miss at [0x3fa8740, line 0x3fa8740]
160566180000: system.ruby.cp_cntrl0.sequencer: Cache miss at [0x10df798, line 0x10df780]
160566182000: system.ruby.cp_cntrl0.sequencer: Cache miss at [0x3fa8748, line 0x3fa8740]
160566184000: system.ruby.cp_cntrl0.sequencer: Cache miss at [0x3fa8748, line 0x3fa8740]
160566186000: system.ruby.cp_cntrl0.sequencer: Cache miss at [0x3fa8740, line 0x3fa8740]
160566188000: system.ruby.cp_cntrl0.sequencer: Cache miss at [0x38a48, line 0x38a40]
160566190000: system.ruby.cp_cntrl0.sequencer: Cache miss at [0xfaa3f0, line 0xfaa3c0]
160566192000: system.ruby.cp_cntrl0.sequencer: Cache miss at [0xfaa3f0, line 0xfaa3c0]
160566194000: system.ruby.cp_cntrl0.sequencer: Cache miss at [0xfaa3f8, line 0xfaa3c0]
160566196000: system.ruby.cp_cntrl0.sequencer: Cache miss at [0xf90c20, line 0xf90c00]
160566198000: system.ruby.cp_cntrl0.sequencer: Cache miss at [0xc62610, line 0xc62600]
160566200000: system.ruby.cp_cntrl0.sequencer: Cache miss at [0x13a7710, line 0x13a7700]
160566202000: system.ruby.cp_cntrl0.sequencer: Cache miss at [0x13a7710, line 0x13a7700]
160566204000: system.ruby.cp_cntrl0.sequencer: Cache miss at [0x13a7718, line 0x13a7700]
160566206000: system.ruby.cp_cntrl0.sequencer: Cache miss at [0x13a7718, line 0x13a7700]
160566208000: system.ruby.cp_cntrl0.sequencer: Cache miss at [0x13a7718, line 0x13a7700]
160566210000: system.ruby.cp_cntrl0.sequencer: Cache miss at [0x13a7720, line 0x13a7700]
160566212000: system.ruby.cp_cntrl0.sequencer: Cache miss at [0x13a7720, line 0x13a7700]
160566214000: system.ruby.cp_cntrl0.sequencer: Cache miss at [0x13a7720, line 0x13a7700]
160566216000: system.ruby.cp_cntrl0.sequencer: Cache miss at [0x38a48, line 0x38a40]
160566218000: system.ruby.cp_cntrl0.sequencer: Cache miss at [0x3fa8740, line 0x3fa8740]
160566220000: system.ruby.cp_cntrl0.sequencer: Cache miss at [0x10df798, line 0x10df780]
160566222000: system.ruby.cp_cntrl0.sequencer: Cache miss at [0x3fa8748, line 0x3fa8740]
160566224000: system.ruby.cp_cntrl0.sequencer: Cache miss at [0x3fa8748, line 0x3fa8740]
160566226000: system.ruby.cp_cntrl0.sequencer: Cache miss at [0x3fa8740, line 0x3fa8740]
160566228000: system.ruby.cp_cntrl0.sequencer: Cache miss at [0x38a48, line 0x38a40]
160566230000: system.ruby.cp_cntrl0.sequencer: Cache miss at [0xfaa3f0, line 0xfaa3c0]
160566232000: system.ruby.cp_cntrl0.sequencer: Cache miss at [0xfaa3f0, line 0xfaa3c0]
160566234000: system.ruby.cp_cntrl0.sequencer: Cache miss at [0xfaa3f8, line 0xfaa3c0]
160566236000: system.ruby.cp_cntrl0.sequencer: Cache miss at [0xf90c20, line 0xf90c00]
160566238000: system.ruby.cp_cntrl0.sequencer: Cache miss at [0xc62610, line 0xc62600]
160566240000: system.ruby.cp_cntrl0.sequencer: Cache miss at [0x13a7710, line 0x13a7700]
160566242000: system.ruby.cp_cntrl0.sequencer: Cache miss at [0x13a7710, line 0x13a7700]
160566244000: system.ruby.cp_cntrl0.sequencer: Cache miss at [0x13a7718, line 0x13a7700]
160566246000: system.ruby.cp_cntrl0.sequencer: Cache miss at [0x13a7718, line 0x13a7700]
160566248000: system.ruby.cp_cntrl0.sequencer: Cache miss at [0x13a7718, line 0x13a7700]
160566250000: system.ruby.cp_cntrl0.sequencer: Cache miss at [0x13a7720, line 0x13a7700]
160566252000: system.ruby.cp_cntrl0.sequencer: Cache miss at [0x13a7720, line 0x13a7700]
160566254000: system.ruby.cp_cntrl0.sequencer: Cache miss at [0x13a7720, line 0x13a7700]
160566256000: system.ruby.cp_cntrl0.sequencer: Cache miss at [0x38a48, line 0x38a40]
160566258000: system.ruby.cp_cntrl0.sequencer: Cache miss at [0x3fa8740, line 0x3fa8740]
160566260000: system.ruby.cp_cntrl0.sequencer: Cache miss at [0x10df798, line 0x10df780]
160566262000: system.ruby.cp_cntrl0.sequencer: Cache miss at [0x3fa8748, line 0x3fa8740]
160566264000: system.ruby.cp_cntrl0.sequencer: Cache miss at [0x3fa8748, line 0x3fa8740]
160566266000: system.ruby.cp_cntrl0.sequencer: Cache miss at [0x3fa8740, line 0x3fa8740]
160566268000: system.ruby.cp_cntrl0.sequencer: Cache miss at [0x38a48, line 0x38a40]
160566270000: system.ruby.cp_cntrl0.sequencer: Cache miss at [0xfaa3f0, line 0xfaa3c0]
160566272000: system.ruby.cp_cntrl0.sequencer: Cache miss at [0xfaa3f0, line 0xfaa3c0]
160566274000: system.ruby.cp_cntrl0.sequencer: Cache miss at [0xfaa3f8, line 0xfaa3c0]
160566276000: system.ruby.cp_cntrl0.sequencer: Cache miss at [0xf90c20, line 0xf90c00]
160566278000: system.ruby.cp_cntrl0.sequencer: Cache miss at [0xc62610, line 0xc62600]
160566280000: system.ruby.cp_cntrl0.sequencer: Cache miss at [0x13a7710, line 0x13a7700]
160566282000: system.ruby.cp_cntrl0.sequencer: Cache miss at [0x13a7710, line 0x13a7700]
160566284000: system.ruby.cp_cntrl0.sequencer: Cache miss at [0x13a7718, line 0x13a7700]
160566286000: system.ruby.cp_cntrl0.sequencer: Cache miss at [0x13a7718, line 0x13a7700]
160566288000: system.ruby.cp_cntrl0.sequencer: Cache miss at [0x13a7718, line 0x13a7700]
160566290000: system.ruby.cp_cntrl0.sequencer: Cache miss at [0x13a7720, line 0x13a7700]
160566292000: system.ruby.cp_cntrl0.sequencer: Cache miss at [0x13a7720, line 0x13a7700]
160566294000: system.ruby.cp_cntrl0.sequencer: Cache miss at [0x13a7720, line 0x13a7700]
160566296000: system.ruby.cp_cntrl0.sequencer: Cache miss at [0x38a48, line 0x38a40]
160566298000: system.ruby.cp_cntrl0.sequencer: Cache miss at [0x3fa8740, line 0x3fa8740]
160566300000: system.ruby.cp_cntrl0.sequencer: Cache miss at [0x10df798, line 0x10df780]
160566302000: system.ruby.cp_cntrl0.sequencer: Cache miss at [0x3fa8748, line 0x3fa8740]
160566303000: system.ruby.cp_cntrl1.sequencer: Cache hit at [0x10d7ef0, line 0x10d7ec0]
160566304000: system.ruby.cp_cntrl0.sequencer: Cache miss at [0x3fa8748, line 0x3fa8740]
160566305000: system.ruby.cp_cntrl1.sequencer: Cache miss at [0x13a8110, line 0x13a8100]
160566306000: system.ruby.cp_cntrl0.sequencer: Cache miss at [0x3fa8740, line 0x3fa8740]
160566307000: system.ruby.cp_cntrl1.sequencer: Cache miss at [0x13a8110, line 0x13a8100]
160566308000: system.ruby.cp_cntrl0.sequencer: Cache miss at [0x38a48, line 0x38a40]
160566309000: system.ruby.cp_cntrl1.sequencer: Cache miss at [0x13a8130, line 0x13a8100]
160566310000: system.ruby.cp_cntrl0.sequencer: Cache miss at [0xfaa3f0, line 0xfaa3c0]
160566311000: system.ruby.cp_cntrl1.sequencer: Cache miss at [0x139cc80, line 0x139cc80]
160566312000: system.ruby.cp_cntrl0.sequencer: Cache miss at [0xfaa3f0, line 0xfaa3c0]
160566313000: system.ruby.cp_cntrl1.sequencer: Cache miss at [0x13a8130, line 0x13a8100]
160566314000: system.ruby.cp_cntrl0.sequencer: Cache miss at [0xfaa3f8, line 0xfaa3c0]
160566315000: system.ruby.cp_cntrl1.sequencer: Cache miss at [0x13a8138, line 0x13a8100]
160566316000: system.ruby.cp_cntrl0.sequencer: Cache miss at [0xf90c20, line 0xf90c00]
160566317000: system.ruby.cp_cntrl1.sequencer: Cache miss at [0x138bf90, line 0x138bf80]
160566318000: system.ruby.cp_cntrl0.sequencer: Cache miss at [0xc62610, line 0xc62600]
160566320000: system.ruby.cp_cntrl0.sequencer: Cache miss at [0x13a7710, line 0x13a7700]
160566322000: system.ruby.cp_cntrl0.sequencer: Cache miss at [0x13a7710, line 0x13a7700]
160566324000: system.ruby.cp_cntrl0.sequencer: Cache miss at [0x13a7718, line 0x13a7700]
160566326000: system.ruby.cp_cntrl0.sequencer: Cache miss at [0x13a7718, line 0x13a7700]
160566328000: system.ruby.cp_cntrl0.sequencer: Cache miss at [0x13a7718, line 0x13a7700]
160566330000: system.ruby.cp_cntrl0.sequencer: Cache miss at [0x13a7720, line 0x13a7700]
160566332000: system.ruby.cp_cntrl0.sequencer: Cache miss at [0x13a7720, line 0x13a7700]
160566334000: system.ruby.cp_cntrl0.sequencer: Cache miss at [0x13a7720, line 0x13a7700]
160566336000: system.ruby.cp_cntrl0.sequencer: Cache miss at [0x38a48, line 0x38a40]
160566338000: system.ruby.cp_cntrl0.sequencer: Cache miss at [0x3fa8740, line 0x3fa8740]
160566340000: system.ruby.cp_cntrl0.sequencer: Cache miss at [0x10df798, line 0x10df780]
160566342000: system.ruby.cp_cntrl0.sequencer: Cache miss at [0x3fa8748, line 0x3fa8740]
160566344000: system.ruby.cp_cntrl0.sequencer: Cache miss at [0x3fa8748, line 0x3fa8740]
160566346000: system.ruby.cp_cntrl0.sequencer: Cache miss at [0x3fa8740, line 0x3fa8740]
160566348000: system.ruby.cp_cntrl0.sequencer: Cache miss at [0x38a48, line 0x38a40]
160566350000: system.ruby.cp_cntrl0.sequencer: Cache miss at [0xfaa3f0, line 0xfaa3c0]
160566352000: system.ruby.cp_cntrl0.sequencer: Cache miss at [0xfaa3f0, line 0xfaa3c0]
160566354000: system.ruby.cp_cntrl0.sequencer: Cache miss at [0xfaa3f8, line 0xfaa3c0]
160566356000: system.ruby.cp_cntrl0.sequencer: Cache miss at [0xf90c20, line 0xf90c00]
160566358000: system.ruby.cp_cntrl0.sequencer: Cache miss at [0xc62610, line 0xc62600]
160566360000: system.ruby.cp_cntrl0.sequencer: Cache miss at [0x13a7710, line 0x13a7700]
160566362000: system.ruby.cp_cntrl0.sequencer: Cache miss at [0x13a7710, line 0x13a7700]
160566364000: system.ruby.cp_cntrl0.sequencer: Cache miss at [0x13a7718, line 0x13a7700]
160566366000: system.ruby.cp_cntrl0.sequencer: Cache miss at [0x13a7718, line 0x13a7700]
160566368000: system.ruby.cp_cntrl0.sequencer: Cache miss at [0x13a7718, line 0x13a7700]
160566370000: system.ruby.cp_cntrl0.sequencer: Cache miss at [0x13a7720, line 0x13a7700]
160566372000: system.ruby.cp_cntrl0.sequencer: Cache miss at [0x13a7720, line 0x13a7700]
160566374000: system.ruby.cp_cntrl0.sequencer: Cache miss at [0x13a7720, line 0x13a7700]
160566376000: system.ruby.cp_cntrl0.sequencer: Cache miss at [0x38a48, line 0x38a40]
160566378000: system.ruby.cp_cntrl0.sequencer: Cache miss at [0x3fa8740, line 0x3fa8740]
160566380000: system.ruby.cp_cntrl0.sequencer: Cache miss at [0x10df798, line 0x10df780]
160566382000: system.ruby.cp_cntrl0.sequencer: Cache miss at [0x3fa8748, line 0x3fa8740]
160566384000: system.ruby.cp_cntrl0.sequencer: Cache miss at [0x3fa8748, line 0x3fa8740]
160566386000: system.ruby.cp_cntrl0.sequencer: Cache miss at [0x3fa8740, line 0x3fa8740]
160566388000: system.ruby.cp_cntrl0.sequencer: Cache miss at [0x38a48, line 0x38a40]
160566390000: system.ruby.cp_cntrl0.sequencer: Cache miss at [0xfaa3f0, line 0xfaa3c0]
160566392000: system.ruby.cp_cntrl0.sequencer: Cache miss at [0xfaa3f0, line 0xfaa3c0]
160566394000: system.ruby.cp_cntrl0.sequencer: Cache miss at [0xfaa3f8, line 0xfaa3c0]
160566396000: system.ruby.cp_cntrl0.sequencer: Cache miss at [0xf90c20, line 0xf90c00]
160566398000: system.ruby.cp_cntrl0.sequencer: Cache miss at [0xc62610, line 0xc62600]
160566400000: system.ruby.cp_cntrl0.sequencer: Cache miss at [0x13a7710, line 0x13a7700]
160566402000: system.ruby.cp_cntrl0.sequencer: Cache miss at [0x13a7710, line 0x13a7700]
160566404000: system.ruby.cp_cntrl0.sequencer: Cache miss at [0x13a7718, line 0x13a7700]
160566406000: system.ruby.cp_cntrl0.sequencer: Cache miss at [0x13a7718, line 0x13a7700]
160566408000: system.ruby.cp_cntrl0.sequencer: Cache miss at [0x13a7718, line 0x13a7700]
160566410000: system.ruby.cp_cntrl0.sequencer: Cache miss at [0x13a7720, line 0x13a7700]
160566412000: system.ruby.cp_cntrl0.sequencer: Cache miss at [0x13a7720, line 0x13a7700]
160566414000: system.ruby.cp_cntrl0.sequencer: Cache miss at [0x13a7720, line 0x13a7700]
160566416000: system.ruby.cp_cntrl0.sequencer: Cache miss at [0x38a48, line 0x38a40]
160566418000: system.ruby.cp_cntrl0.sequencer: Cache miss at [0x3fa8740, line 0x3fa8740]
160566420000: system.ruby.cp_cntrl0.sequencer: Cache miss at [0x10df798, line 0x10df780]
160566422000: system.ruby.cp_cntrl0.sequencer: Cache miss at [0x3fa8748, line 0x3fa8740]
160566424000: system.ruby.cp_cntrl0.sequencer: Cache miss at [0x3fa8748, line 0x3fa8740]
160566426000: system.ruby.cp_cntrl0.sequencer: Cache miss at [0x3fa8740, line 0x3fa8740]
160566428000: system.ruby.cp_cntrl0.sequencer: Cache miss at [0x38a48, line 0x38a40]
160566430000: system.ruby.cp_cntrl0.sequencer: Cache miss at [0xfaa3f0, line 0xfaa3c0]
160566432000: system.ruby.cp_cntrl0.sequencer: Cache miss at [0xfaa3f0, line 0xfaa3c0]
160566434000: system.ruby.cp_cntrl0.sequencer: Cache miss at [0xfaa3f8, line 0xfaa3c0]
160566436000: system.ruby.cp_cntrl0.sequencer: Cache miss at [0xf90c20, line 0xf90c00]
160566438000: system.ruby.cp_cntrl0.sequencer: Cache miss at [0xc62610, line 0xc62600]
160566440000: system.ruby.cp_cntrl0.sequencer: Cache miss at [0x13a7710, line 0x13a7700]
160566442000: system.ruby.cp_cntrl0.sequencer: Cache miss at [0x13a7710, line 0x13a7700]
160566444000: system.ruby.cp_cntrl0.sequencer: Cache miss at [0x13a7718, line 0x13a7700]
160566446000: system.ruby.cp_cntrl0.sequencer: Cache miss at [0x13a7718, line 0x13a7700]
160566448000: system.ruby.cp_cntrl0.sequencer: Cache miss at [0x13a7718, line 0x13a7700]
160566450000: system.ruby.cp_cntrl0.sequencer: Cache miss at [0x13a7720, line 0x13a7700]
160566452000: system.ruby.cp_cntrl0.sequencer: Cache miss at [0x13a7720, line 0x13a7700]
160566454000: system.ruby.cp_cntrl0.sequencer: Cache miss at [0x13a7720, line 0x13a7700]
160566456000: system.ruby.cp_cntrl0.sequencer: Cache miss at [0x38a48, line 0x38a40]
160566458000: system.ruby.cp_cntrl0.sequencer: Cache miss at [0x3fa8740, line 0x3fa8740]
160566460000: system.ruby.cp_cntrl0.sequencer: Cache miss at [0x10df798, line 0x10df780]
160566462000: system.ruby.cp_cntrl0.sequencer: Cache miss at [0x3fa8748, line 0x3fa8740]
160566464000: system.ruby.cp_cntrl0.sequencer: Cache miss at [0x3fa8748, line 0x3fa8740]
160566466000: system.ruby.cp_cntrl0.sequencer: Cache miss at [0x3fa8740, line 0x3fa8740]
160566468000: system.ruby.cp_cntrl0.sequencer: Cache miss at [0x38a48, line 0x38a40]
160566470000: system.ruby.cp_cntrl0.sequencer: Cache miss at [0xfaa3f0, line 0xfaa3c0]
160566472000: system.ruby.cp_cntrl0.sequencer: Cache miss at [0xfaa3f0, line 0xfaa3c0]
160566474000: system.ruby.cp_cntrl0.sequencer: Cache miss at [0xfaa3f8, line 0xfaa3c0]
160566476000: system.ruby.cp_cntrl0.sequencer: Cache miss at [0xf90c20, line 0xf90c00]
160566478000: system.ruby.cp_cntrl0.sequencer: Cache miss at [0xc62610, line 0xc62600]
160566480000: system.ruby.cp_cntrl0.sequencer: Cache miss at [0x13a7710, line 0x13a7700]
160566482000: system.ruby.cp_cntrl0.sequencer: Cache miss at [0x13a7710, line 0x13a7700]
160566484000: system.ruby.cp_cntrl0.sequencer: Cache miss at [0x13a7718, line 0x13a7700]
160566486000: system.ruby.cp_cntrl0.sequencer: Cache miss at [0x13a7718, line 0x13a7700]
160566488000: system.ruby.cp_cntrl0.sequencer: Cache miss at [0x13a7718, line 0x13a7700]
160566490000: system.ruby.cp_cntrl0.sequencer: Cache miss at [0x13a7720, line 0x13a7700]
160566492000: system.ruby.cp_cntrl0.sequencer: Cache miss at [0x13a7720, line 0x13a7700]
160566494000: system.ruby.cp_cntrl0.sequencer: Cache miss at [0x13a7720, line 0x13a7700]
160566496000: system.ruby.cp_cntrl0.sequencer: Cache miss at [0x38a48, line 0x38a40]
160566498000: system.ruby.cp_cntrl0.sequencer: Cache miss at [0x3fa8740, line 0x3fa8740]
160566500000: system.ruby.cp_cntrl0.sequencer: Cache miss at [0x10df798, line 0x10df780]
160566502000: system.ruby.cp_cntrl0.sequencer: Cache miss at [0x3fa8748, line 0x3fa8740]
160566504000: system.ruby.cp_cntrl0.sequencer: Cache miss at [0x3fa8748, line 0x3fa8740]
160566506000: system.ruby.cp_cntrl0.sequencer: Cache miss at [0x3fa8740, line 0x3fa8740]
160566508000: system.ruby.cp_cntrl0.sequencer: Cache miss at [0x38a48, line 0x38a40]
160566510000: system.ruby.cp_cntrl0.sequencer: Cache miss at [0xfaa3f0, line 0xfaa3c0]
160566512000: system.ruby.cp_cntrl0.sequencer: Cache miss at [0xfaa3f0, line 0xfaa3c0]
160566514000: system.ruby.cp_cntrl0.sequencer: Cache miss at [0xfaa3f8, line 0xfaa3c0]
160566516000: system.ruby.cp_cntrl0.sequencer: Cache miss at [0xf90c20, line 0xf90c00]
160566518000: system.ruby.cp_cntrl0.sequencer: Cache miss at [0xc62610, line 0xc62600]
160566520000: system.ruby.cp_cntrl0.sequencer: Cache miss at [0x13a7710, line 0x13a7700]
160566522000: system.ruby.cp_cntrl0.sequencer: Cache miss at [0x13a7710, line 0x13a7700]
160566524000: system.ruby.cp_cntrl0.sequencer: Cache miss at [0x13a7718, line 0x13a7700]
160566526000: system.ruby.cp_cntrl0.sequencer: Cache miss at [0x13a7718, line 0x13a7700]
160566528000: system.ruby.cp_cntrl0.sequencer: Cache miss at [0x13a7718, line 0x13a7700]
160566530000: system.ruby.cp_cntrl0.sequencer: Cache miss at [0x13a7720, line 0x13a7700]
160566532000: system.ruby.cp_cntrl0.sequencer: Cache miss at [0x13a7720, line 0x13a7700]
160566534000: system.ruby.cp_cntrl0.sequencer: Cache miss at [0x13a7720, line 0x13a7700]
160566536000: system.ruby.cp_cntrl0.sequencer: Cache miss at [0x38a48, line 0x38a40]
160566538000: system.ruby.cp_cntrl0.sequencer: Cache miss at [0x3fa8740, line 0x3fa8740]
160566540000: system.ruby.cp_cntrl0.sequencer: Cache miss at [0x10df798, line 0x10df780]
160566542000: system.ruby.cp_cntrl0.sequencer: Cache miss at [0x3fa8748, line 0x3fa8740]
160566544000: system.ruby.cp_cntrl0.sequencer: Cache miss at [0x3fa8748, line 0x3fa8740]
160566546000: system.ruby.cp_cntrl0.sequencer: Cache miss at [0x3fa8740, line 0x3fa8740]
160566548000: system.ruby.cp_cntrl0.sequencer: Cache miss at [0x38a48, line 0x38a40]
160566550000: system.ruby.cp_cntrl0.sequencer: Cache miss at [0xfaa3f0, line 0xfaa3c0]
160566552000: system.ruby.cp_cntrl0.sequencer: Cache miss at [0xfaa3f0, line 0xfaa3c0]
160566554000: system.ruby.cp_cntrl0.sequencer: Cache miss at [0xfaa3f8, line 0xfaa3c0]
160566556000: system.ruby.cp_cntrl0.sequencer: Cache miss at [0xf90c20, line 0xf90c00]
160566558000: system.ruby.cp_cntrl0.sequencer: Cache miss at [0xc62610, line 0xc62600]
160566560000: system.ruby.cp_cntrl0.sequencer: Cache miss at [0x13a7710, line 0x13a7700]
160566562000: system.ruby.cp_cntrl0.sequencer: Cache miss at [0x13a7710, line 0x13a7700]
160566564000: system.ruby.cp_cntrl0.sequencer: Cache miss at [0x13a7718, line 0x13a7700]
160566566000: system.ruby.cp_cntrl0.sequencer: Cache miss at [0x13a7718, line 0x13a7700]
160566568000: system.ruby.cp_cntrl0.sequencer: Cache miss at [0x13a7718, line 0x13a7700]
160566570000: system.ruby.cp_cntrl0.sequencer: Cache miss at [0x13a7720, line 0x13a7700]
160566572000: system.ruby.cp_cntrl0.sequencer: Cache miss at [0x13a7720, line 0x13a7700]
160566574000: system.ruby.cp_cntrl0.sequencer: Cache miss at [0x13a7720, line 0x13a7700]
160566576000: system.ruby.cp_cntrl0.sequencer: Cache miss at [0x38a48, line 0x38a40]
160566578000: system.ruby.cp_cntrl0.sequencer: Cache miss at [0x3fa8740, line 0x3fa8740]
160566580000: system.ruby.cp_cntrl0.sequencer: Cache miss at [0x10df798, line 0x10df780]
160566582000: system.ruby.cp_cntrl0.sequencer: Cache miss at [0x3fa8748, line 0x3fa8740]
160566584000: system.ruby.cp_cntrl0.sequencer: Cache miss at [0x3fa8748, line 0x3fa8740]
160566586000: system.ruby.cp_cntrl0.sequencer: Cache miss at [0x3fa8740, line 0x3fa8740]
160566588000: system.ruby.cp_cntrl0.sequencer: Cache miss at [0x38a48, line 0x38a40]
160566590000: system.ruby.cp_cntrl0.sequencer: Cache miss at [0xfaa3f0, line 0xfaa3c0]
160566592000: system.ruby.cp_cntrl0.sequencer: Cache miss at [0xfaa3f0, line 0xfaa3c0]
160566594000: system.ruby.cp_cntrl0.sequencer: Cache miss at [0xfaa3f8, line 0xfaa3c0]
160566596000: system.ruby.cp_cntrl0.sequencer: Cache miss at [0xf90c20, line 0xf90c00]
160566598000: system.ruby.cp_cntrl0.sequencer: Cache miss at [0xc62610, line 0xc62600]
160566600000: system.ruby.cp_cntrl0.sequencer: Cache miss at [0x13a7710, line 0x13a7700]
160566602000: system.ruby.cp_cntrl0.sequencer: Cache miss at [0x13a7710, line 0x13a7700]
160566604000: system.ruby.cp_cntrl0.sequencer: Cache miss at [0x13a7718, line 0x13a7700]
160566606000: system.ruby.cp_cntrl0.sequencer: Cache miss at [0x13a7718, line 0x13a7700]
160566608000: system.ruby.cp_cntrl0.sequencer: Cache miss at [0x13a7718, line 0x13a7700]
160566610000: system.ruby.cp_cntrl0.sequencer: Cache miss at [0x13a7720, line 0x13a7700]
160566612000: system.ruby.cp_cntrl0.sequencer: Cache miss at [0x13a7720, line 0x13a7700]
160566614000: system.ruby.cp_cntrl0.sequencer: Cache miss at [0x13a7720, line 0x13a7700]
160566616000: system.ruby.cp_cntrl0.sequencer: Cache miss at [0x38a48, line 0x38a40]
160566618000: system.ruby.cp_cntrl0.sequencer: Cache miss at [0x3fa8740, line 0x3fa8740]
160566620000: system.ruby.cp_cntrl0.sequencer: Cache miss at [0x10df798, line 0x10df780]
160566622000: system.ruby.cp_cntrl0.sequencer: Cache miss at [0x3fa8748, line 0x3fa8740]
160566624000: system.ruby.cp_cntrl0.sequencer: Cache miss at [0x3fa8748, line 0x3fa8740]
160566626000: system.ruby.cp_cntrl0.sequencer: Cache miss at [0x3fa8740, line 0x3fa8740]
160566628000: system.ruby.cp_cntrl0.sequencer: Cache miss at [0x38a48, line 0x38a40]
160566630000: system.ruby.cp_cntrl0.sequencer: Cache miss at [0xfaa3f0, line 0xfaa3c0]
160566632000: system.ruby.cp_cntrl0.sequencer: Cache miss at [0xfaa3f0, line 0xfaa3c0]
160566634000: system.ruby.cp_cntrl0.sequencer: Cache miss at [0xfaa3f8, line 0xfaa3c0]
160566636000: system.ruby.cp_cntrl1.sequencer: Cache hit at [0x10d5bc8, line 0x10d5bc0]
160566636000: system.ruby.cp_cntrl0.sequencer: Cache miss at [0xf90c20, line 0xf90c00]
160566638000: system.ruby.cp_cntrl0.sequencer: Cache miss at [0xc62610, line 0xc62600]
160566638000: system.ruby.cp_cntrl1.sequencer: Cache miss at [0x138bf90, line 0x138bf80]
160566640000: system.ruby.cp_cntrl1.sequencer: Cache miss at [0x138bf90, line 0x138bf80]
160566640000: system.ruby.cp_cntrl0.sequencer: Cache miss at [0x13a7710, line 0x13a7700]
160566642000: system.ruby.cp_cntrl0.sequencer: Cache miss at [0x13a7710, line 0x13a7700]
160566642000: system.ruby.cp_cntrl1.sequencer: Cache miss at [0x138bf98, line 0x138bf80]
160566644000: system.ruby.cp_cntrl1.sequencer: Cache miss at [0x10d5bd0, line 0x10d5bc0]
160566644000: system.ruby.cp_cntrl0.sequencer: Cache miss at [0x13a7718, line 0x13a7700]
160566646000: system.ruby.cp_cntrl0.sequencer: Cache miss at [0x13a7718, line 0x13a7700]
160566646000: system.ruby.cp_cntrl1.sequencer: Cache miss at [0x138bf98, line 0x138bf80]
160566648000: system.ruby.cp_cntrl1.sequencer: Cache miss at [0x138bf98, line 0x138bf80]
160566648000: system.ruby.cp_cntrl0.sequencer: Cache miss at [0x13a7718, line 0x13a7700]
160566650000: system.ruby.cp_cntrl0.sequencer: Cache miss at [0x13a7720, line 0x13a7700]
160566650000: system.ruby.cp_cntrl1.sequencer: Cache miss at [0x138bfa0, line 0x138bf80]
160566652000: system.ruby.cp_cntrl0.sequencer: Cache miss at [0x13a7720, line 0x13a7700]
160566654000: system.ruby.cp_cntrl0.sequencer: Cache miss at [0x13a7720, line 0x13a7700]
160566656000: system.ruby.cp_cntrl0.sequencer: Cache miss at [0x38a48, line 0x38a40]
160566658000: system.ruby.cp_cntrl0.sequencer: Cache miss at [0x3fa8740, line 0x3fa8740]
160566660000: system.ruby.cp_cntrl0.sequencer: Cache miss at [0x10df798, line 0x10df780]
160566662000: system.ruby.cp_cntrl0.sequencer: Cache miss at [0x3fa8748, line 0x3fa8740]
160566664000: system.ruby.cp_cntrl0.sequencer: Cache miss at [0x3fa8748, line 0x3fa8740]
160566666000: system.ruby.cp_cntrl0.sequencer: Cache miss at [0x3fa8740, line 0x3fa8740]
160566668000: system.ruby.cp_cntrl0.sequencer: Cache miss at [0x38a48, line 0x38a40]
160566670000: system.ruby.cp_cntrl0.sequencer: Cache miss at [0xfaa3f0, line 0xfaa3c0]
160566672000: system.ruby.cp_cntrl0.sequencer: Cache miss at [0xfaa3f0, line 0xfaa3c0]
160566673155: system.ruby.sqc_cntrl0.sequencer: Cache hit at [0x401d000, line 0x401d000]
160566674000: system.ruby.cp_cntrl0.sequencer: Cache miss at [0xfaa3f8, line 0xfaa3c0]
160566676000: system.ruby.cp_cntrl0.sequencer: Cache miss at [0xf90c20, line 0xf90c00]
160566678000: system.ruby.cp_cntrl0.sequencer: Cache miss at [0xc62610, line 0xc62600]
160566680000: system.ruby.cp_cntrl0.sequencer: Cache miss at [0x13a7710, line 0x13a7700]
160566682000: system.ruby.cp_cntrl0.sequencer: Cache miss at [0x13a7710, line 0x13a7700]
160566684000: system.ruby.cp_cntrl0.sequencer: Cache miss at [0x13a7718, line 0x13a7700]
160566686000: system.ruby.cp_cntrl0.sequencer: Cache miss at [0x13a7718, line 0x13a7700]
160566688000: system.ruby.cp_cntrl0.sequencer: Cache miss at [0x13a7718, line 0x13a7700]
160566690000: system.ruby.cp_cntrl0.sequencer: Cache miss at [0x13a7720, line 0x13a7700]
160566692000: system.ruby.cp_cntrl0.sequencer: Cache miss at [0x13a7720, line 0x13a7700]
160566694000: system.ruby.cp_cntrl0.sequencer: Cache miss at [0x13a7720, line 0x13a7700]
160566696000: system.ruby.cp_cntrl0.sequencer: Cache miss at [0x38a48, line 0x38a40]
160566698000: system.ruby.cp_cntrl0.sequencer: Cache miss at [0x3fa8740, line 0x3fa8740]
160566700000: system.ruby.cp_cntrl0.sequencer: Cache miss at [0x10df798, line 0x10df780]
160566702000: system.ruby.cp_cntrl0.sequencer: Cache miss at [0x3fa8748, line 0x3fa8740]
160566704000: system.ruby.cp_cntrl0.sequencer: Cache miss at [0x3fa8748, line 0x3fa8740]
160566706000: system.ruby.cp_cntrl0.sequencer: Cache miss at [0x3fa8740, line 0x3fa8740]
160566708000: system.ruby.cp_cntrl0.sequencer: Cache miss at [0x38a48, line 0x38a40]
160566710000: system.ruby.cp_cntrl0.sequencer: Cache miss at [0xfaa3f0, line 0xfaa3c0]
160566712000: system.ruby.cp_cntrl0.sequencer: Cache miss at [0xfaa3f0, line 0xfaa3c0]
160566714000: system.ruby.cp_cntrl0.sequencer: Cache miss at [0xfaa3f8, line 0xfaa3c0]
160566716000: system.ruby.cp_cntrl0.sequencer: Cache miss at [0xf90c20, line 0xf90c00]
160566718000: system.ruby.cp_cntrl0.sequencer: Cache miss at [0xc62610, line 0xc62600]
160566720000: system.ruby.cp_cntrl0.sequencer: Cache miss at [0x13a7710, line 0x13a7700]
160566722000: system.ruby.cp_cntrl0.sequencer: Cache miss at [0x13a7710, line 0x13a7700]
160566724000: system.ruby.cp_cntrl0.sequencer: Cache miss at [0x13a7718, line 0x13a7700]
160566726000: system.ruby.cp_cntrl0.sequencer: Cache miss at [0x13a7718, line 0x13a7700]
160566728000: system.ruby.cp_cntrl0.sequencer: Cache miss at [0x13a7718, line 0x13a7700]
160566730000: system.ruby.cp_cntrl0.sequencer: Cache miss at [0x13a7720, line 0x13a7700]
160566732000: system.ruby.cp_cntrl0.sequencer: Cache miss at [0x13a7720, line 0x13a7700]
160566734000: system.ruby.cp_cntrl0.sequencer: Cache miss at [0x13a7720, line 0x13a7700]
160566736000: system.ruby.cp_cntrl0.sequencer: Cache miss at [0x38a48, line 0x38a40]
160566738000: system.ruby.cp_cntrl0.sequencer: Cache miss at [0x3fa8740, line 0x3fa8740]
160566740000: system.ruby.cp_cntrl0.sequencer: Cache miss at [0x10df798, line 0x10df780]
160566742000: system.ruby.cp_cntrl0.sequencer: Cache miss at [0x3fa8748, line 0x3fa8740]
160566744000: system.ruby.cp_cntrl0.sequencer: Cache miss at [0x3fa8748, line 0x3fa8740]
160566746000: system.ruby.cp_cntrl0.sequencer: Cache miss at [0x3fa8740, line 0x3fa8740]
160566748000: system.ruby.cp_cntrl0.sequencer: Cache miss at [0x38a48, line 0x38a40]
160566750000: system.ruby.cp_cntrl0.sequencer: Cache miss at [0xfaa3f0, line 0xfaa3c0]
160566752000: system.ruby.cp_cntrl0.sequencer: Cache miss at [0xfaa3f0, line 0xfaa3c0]
160566754000: system.ruby.cp_cntrl0.sequencer: Cache miss at [0xfaa3f8, line 0xfaa3c0]
160566756000: system.ruby.cp_cntrl0.sequencer: Cache miss at [0xf90c20, line 0xf90c00]
160566758000: system.ruby.cp_cntrl0.sequencer: Cache miss at [0xc62610, line 0xc62600]
160566760000: system.ruby.cp_cntrl0.sequencer: Cache miss at [0x13a7710, line 0x13a7700]
160566762000: system.ruby.cp_cntrl0.sequencer: Cache miss at [0x13a7710, line 0x13a7700]
160566764000: system.ruby.cp_cntrl0.sequencer: Cache miss at [0x13a7718, line 0x13a7700]
160566766000: system.ruby.cp_cntrl0.sequencer: Cache miss at [0x13a7718, line 0x13a7700]
160566768000: system.ruby.cp_cntrl0.sequencer: Cache miss at [0x13a7718, line 0x13a7700]
160566770000: system.ruby.cp_cntrl0.sequencer: Cache miss at [0x13a7720, line 0x13a7700]
160566772000: system.ruby.cp_cntrl0.sequencer: Cache miss at [0x13a7720, line 0x13a7700]
160566774000: system.ruby.cp_cntrl0.sequencer: Cache miss at [0x13a7720, line 0x13a7700]
160566776000: system.ruby.cp_cntrl0.sequencer: Cache miss at [0x38a48, line 0x38a40]
160566778000: system.ruby.cp_cntrl0.sequencer: Cache miss at [0x3fa8740, line 0x3fa8740]
160566780000: system.ruby.cp_cntrl0.sequencer: Cache miss at [0x10df798, line 0x10df780]
160566782000: system.ruby.cp_cntrl0.sequencer: Cache miss at [0x3fa8748, line 0x3fa8740]
160566784000: system.ruby.cp_cntrl0.sequencer: Cache miss at [0x3fa8748, line 0x3fa8740]
160566786000: system.ruby.cp_cntrl0.sequencer: Cache miss at [0x3fa8740, line 0x3fa8740]
160566788000: system.ruby.cp_cntrl0.sequencer: Cache miss at [0x38a48, line 0x38a40]
160566790000: system.ruby.cp_cntrl0.sequencer: Cache miss at [0xfaa3f0, line 0xfaa3c0]
160566792000: system.ruby.cp_cntrl0.sequencer: Cache miss at [0xfaa3f0, line 0xfaa3c0]
160566794000: system.ruby.cp_cntrl0.sequencer: Cache miss at [0xfaa3f8, line 0xfaa3c0]
160566796000: system.ruby.cp_cntrl0.sequencer: Cache miss at [0xf90c20, line 0xf90c00]
160566798000: system.ruby.cp_cntrl0.sequencer: Cache miss at [0xc62610, line 0xc62600]
160566800000: system.ruby.cp_cntrl0.sequencer: Cache miss at [0x13a7710, line 0x13a7700]
160566802000: system.ruby.cp_cntrl0.sequencer: Cache miss at [0x13a7710, line 0x13a7700]
160566804000: system.ruby.cp_cntrl0.sequencer: Cache miss at [0x13a7718, line 0x13a7700]
160566806000: system.ruby.cp_cntrl0.sequencer: Cache miss at [0x13a7718, line 0x13a7700]
160566808000: system.ruby.cp_cntrl0.sequencer: Cache miss at [0x13a7718, line 0x13a7700]
160566810000: system.ruby.cp_cntrl0.sequencer: Cache miss at [0x13a7720, line 0x13a7700]
160566812000: system.ruby.cp_cntrl0.sequencer: Cache miss at [0x13a7720, line 0x13a7700]
160566814000: system.ruby.cp_cntrl0.sequencer: Cache miss at [0x13a7720, line 0x13a7700]
160566816000: system.ruby.cp_cntrl0.sequencer: Cache miss at [0x38a48, line 0x38a40]
160566818000: system.ruby.cp_cntrl0.sequencer: Cache miss at [0x3fa8740, line 0x3fa8740]
160566820000: system.ruby.cp_cntrl0.sequencer: Cache miss at [0x10df798, line 0x10df780]
160566822000: system.ruby.cp_cntrl0.sequencer: Cache miss at [0x3fa8748, line 0x3fa8740]
160566824000: system.ruby.cp_cntrl0.sequencer: Cache miss at [0x3fa8748, line 0x3fa8740]
160566826000: system.ruby.cp_cntrl0.sequencer: Cache miss at [0x3fa8740, line 0x3fa8740]
160566828000: system.ruby.cp_cntrl0.sequencer: Cache miss at [0x38a48, line 0x38a40]
160566830000: system.ruby.cp_cntrl0.sequencer: Cache miss at [0xfaa3f0, line 0xfaa3c0]
160566832000: system.ruby.cp_cntrl0.sequencer: Cache miss at [0xfaa3f0, line 0xfaa3c0]
160566834000: system.ruby.cp_cntrl0.sequencer: Cache miss at [0xfaa3f8, line 0xfaa3c0]
160566836000: system.ruby.cp_cntrl0.sequencer: Cache miss at [0xf90c20, line 0xf90c00]
160566838000: system.ruby.cp_cntrl0.sequencer: Cache miss at [0xc62610, line 0xc62600]
160566840000: system.ruby.cp_cntrl0.sequencer: Cache miss at [0x13a7710, line 0x13a7700]
160566842000: system.ruby.cp_cntrl0.sequencer: Cache miss at [0x13a7710, line 0x13a7700]
160566844000: system.ruby.cp_cntrl0.sequencer: Cache miss at [0x13a7718, line 0x13a7700]
160566846000: system.ruby.cp_cntrl0.sequencer: Cache miss at [0x13a7718, line 0x13a7700]
160566848000: system.ruby.cp_cntrl0.sequencer: Cache miss at [0x13a7718, line 0x13a7700]
160566850000: system.ruby.cp_cntrl0.sequencer: Cache miss at [0x13a7720, line 0x13a7700]
160566852000: system.ruby.cp_cntrl0.sequencer: Cache miss at [0x13a7720, line 0x13a7700]
160566854000: system.ruby.cp_cntrl0.sequencer: Cache miss at [0x13a7720, line 0x13a7700]
160566856000: system.ruby.cp_cntrl0.sequencer: Cache miss at [0x38a48, line 0x38a40]
160566858000: system.ruby.cp_cntrl0.sequencer: Cache miss at [0x3fa8740, line 0x3fa8740]
160566860000: system.ruby.cp_cntrl0.sequencer: Cache miss at [0x10df798, line 0x10df780]
160566862000: system.ruby.cp_cntrl0.sequencer: Cache miss at [0x3fa8748, line 0x3fa8740]
160566864000: system.ruby.cp_cntrl0.sequencer: Cache miss at [0x3fa8748, line 0x3fa8740]
160566866000: system.ruby.cp_cntrl0.sequencer: Cache miss at [0x3fa8740, line 0x3fa8740]
160566868000: system.ruby.cp_cntrl0.sequencer: Cache miss at [0x38a48, line 0x38a40]
160566870000: system.ruby.cp_cntrl0.sequencer: Cache miss at [0xfaa3f0, line 0xfaa3c0]
160566872000: system.ruby.cp_cntrl0.sequencer: Cache miss at [0xfaa3f0, line 0xfaa3c0]
160566874000: system.ruby.cp_cntrl0.sequencer: Cache miss at [0xfaa3f8, line 0xfaa3c0]
160566876000: system.ruby.cp_cntrl0.sequencer: Cache miss at [0xf90c20, line 0xf90c00]
160566878000: system.ruby.cp_cntrl0.sequencer: Cache miss at [0xc62610, line 0xc62600]
160566880000: system.ruby.cp_cntrl0.sequencer: Cache miss at [0x13a7710, line 0x13a7700]
160566882000: system.ruby.cp_cntrl0.sequencer: Cache miss at [0x13a7710, line 0x13a7700]
160566884000: system.ruby.cp_cntrl0.sequencer: Cache miss at [0x13a7718, line 0x13a7700]
160566886000: system.ruby.cp_cntrl0.sequencer: Cache miss at [0x13a7718, line 0x13a7700]
160566888000: system.ruby.cp_cntrl0.sequencer: Cache miss at [0x13a7718, line 0x13a7700]
160566890000: system.ruby.cp_cntrl0.sequencer: Cache miss at [0x13a7720, line 0x13a7700]
160566892000: system.ruby.cp_cntrl0.sequencer: Cache miss at [0x13a7720, line 0x13a7700]
160566894000: system.ruby.cp_cntrl0.sequencer: Cache miss at [0x13a7720, line 0x13a7700]
160566896000: system.ruby.cp_cntrl0.sequencer: Cache miss at [0x38a48, line 0x38a40]
160566898000: system.ruby.cp_cntrl0.sequencer: Cache miss at [0x3fa8740, line 0x3fa8740]
160566900000: system.ruby.cp_cntrl0.sequencer: Cache miss at [0x10df798, line 0x10df780]
160566902000: system.ruby.cp_cntrl0.sequencer: Cache miss at [0x3fa8748, line 0x3fa8740]
160566904000: system.ruby.cp_cntrl0.sequencer: Cache miss at [0x3fa8748, line 0x3fa8740]
160566906000: system.ruby.cp_cntrl0.sequencer: Cache miss at [0x3fa8740, line 0x3fa8740]
160566908000: system.ruby.cp_cntrl0.sequencer: Cache miss at [0x38a48, line 0x38a40]
160566910000: system.ruby.cp_cntrl0.sequencer: Cache miss at [0xfaa3f0, line 0xfaa3c0]
160566912000: system.ruby.cp_cntrl0.sequencer: Cache miss at [0xfaa3f0, line 0xfaa3c0]
160566914000: system.ruby.cp_cntrl0.sequencer: Cache miss at [0xfaa3f8, line 0xfaa3c0]
160566916000: system.ruby.cp_cntrl0.sequencer: Cache miss at [0xf90c20, line 0xf90c00]
160566918000: system.ruby.cp_cntrl0.sequencer: Cache miss at [0xc62610, line 0xc62600]
160566920000: system.ruby.cp_cntrl0.sequencer: Cache miss at [0x13a7710, line 0x13a7700]
160566922000: system.ruby.cp_cntrl0.sequencer: Cache miss at [0x13a7710, line 0x13a7700]
160566924000: system.ruby.cp_cntrl0.sequencer: Cache miss at [0x13a7718, line 0x13a7700]
160566926000: system.ruby.cp_cntrl0.sequencer: Cache miss at [0x13a7718, line 0x13a7700]
160566928000: system.ruby.cp_cntrl0.sequencer: Cache miss at [0x13a7718, line 0x13a7700]
160566930000: system.ruby.cp_cntrl0.sequencer: Cache miss at [0x13a7720, line 0x13a7700]
160566932000: system.ruby.cp_cntrl0.sequencer: Cache miss at [0x13a7720, line 0x13a7700]
160566934000: system.ruby.cp_cntrl0.sequencer: Cache miss at [0x13a7720, line 0x13a7700]
160566936000: system.ruby.cp_cntrl0.sequencer: Cache miss at [0x38a48, line 0x38a40]
160566938000: system.ruby.cp_cntrl0.sequencer: Cache miss at [0x3fa8740, line 0x3fa8740]
160566940000: system.ruby.cp_cntrl0.sequencer: Cache miss at [0x10df798, line 0x10df780]
160566942000: system.ruby.cp_cntrl0.sequencer: Cache miss at [0x3fa8748, line 0x3fa8740]
160566944000: system.ruby.cp_cntrl0.sequencer: Cache miss at [0x3fa8748, line 0x3fa8740]
160566946000: system.ruby.cp_cntrl0.sequencer: Cache miss at [0x3fa8740, line 0x3fa8740]
160566948000: system.ruby.cp_cntrl0.sequencer: Cache miss at [0x38a48, line 0x38a40]
160566950000: system.ruby.cp_cntrl0.sequencer: Cache miss at [0xfaa3f0, line 0xfaa3c0]
160566952000: system.ruby.cp_cntrl0.sequencer: Cache miss at [0xfaa3f0, line 0xfaa3c0]
160566954000: system.ruby.cp_cntrl0.sequencer: Cache miss at [0xfaa3f8, line 0xfaa3c0]
160566956000: system.ruby.cp_cntrl0.sequencer: Cache miss at [0xf90c20, line 0xf90c00]
160566958000: system.ruby.cp_cntrl0.sequencer: Cache miss at [0xc62610, line 0xc62600]
160566960000: system.ruby.cp_cntrl0.sequencer: Cache miss at [0x13a7710, line 0x13a7700]
160566962000: system.ruby.cp_cntrl0.sequencer: Cache miss at [0x13a7710, line 0x13a7700]
160566964000: system.ruby.cp_cntrl0.sequencer: Cache miss at [0x13a7718, line 0x13a7700]
160566966000: system.ruby.cp_cntrl0.sequencer: Cache miss at [0x13a7718, line 0x13a7700]
160566968000: system.ruby.cp_cntrl0.sequencer: Cache miss at [0x13a7718, line 0x13a7700]
160566969000: system.ruby.cp_cntrl1.sequencer: Cache hit at [0x10d9b48, line 0x10d9b40]
160566970000: system.ruby.cp_cntrl0.sequencer: Cache miss at [0x13a7720, line 0x13a7700]
160566971000: system.ruby.cp_cntrl1.sequencer: Cache miss at [0x138bfa0, line 0x138bf80]
160566972000: system.ruby.cp_cntrl0.sequencer: Cache miss at [0x13a7720, line 0x13a7700]
160566973000: system.ruby.cp_cntrl1.sequencer: Cache miss at [0x10d5bc8, line 0x10d5bc0]
160566974000: system.ruby.cp_cntrl0.sequencer: Cache miss at [0x13a7720, line 0x13a7700]
160566975000: system.ruby.cp_cntrl1.sequencer: Cache miss at [0x138bfa0, line 0x138bf80]
160566976000: system.ruby.cp_cntrl0.sequencer: Cache miss at [0x38a48, line 0x38a40]
160566977000: system.ruby.cp_cntrl1.sequencer: Cache miss at [0x138bfa8, line 0x138bf80]
160566978000: system.ruby.cp_cntrl0.sequencer: Cache miss at [0x3fa8740, line 0x3fa8740]
160566979000: system.ruby.cp_cntrl1.sequencer: Cache miss at [0x138bfa8, line 0x138bf80]
160566980000: system.ruby.cp_cntrl0.sequencer: Cache miss at [0x10df798, line 0x10df780]
160566981000: system.ruby.cp_cntrl1.sequencer: Cache miss at [0x138bfa8, line 0x138bf80]
160566982000: system.ruby.cp_cntrl0.sequencer: Cache miss at [0x3fa8748, line 0x3fa8740]
160566983000: system.ruby.cp_cntrl1.sequencer: Cache miss at [0x138bfb0, line 0x138bf80]
160566984000: system.ruby.cp_cntrl0.sequencer: Cache miss at [0x3fa8748, line 0x3fa8740]
160566985000: system.ruby.cp_cntrl1.sequencer: Cache miss at [0x138bfb0, line 0x138bf80]
160566986000: system.ruby.cp_cntrl0.sequencer: Cache miss at [0x3fa8740, line 0x3fa8740]
160566987000: system.ruby.cp_cntrl1.sequencer: Cache miss at [0x138bfb0, line 0x138bf80]
160566988000: system.ruby.cp_cntrl0.sequencer: Cache miss at [0x38a48, line 0x38a40]
160566989000: system.ruby.cp_cntrl1.sequencer: Cache miss at [0x138bfb8, line 0x138bf80]
160566990000: system.ruby.cp_cntrl0.sequencer: Cache miss at [0xfaa3f0, line 0xfaa3c0]
160566991000: system.ruby.cp_cntrl1.sequencer: Cache miss at [0x138bfb8, line 0x138bf80]
160566992000: system.ruby.cp_cntrl0.sequencer: Cache miss at [0xfaa3f0, line 0xfaa3c0]
160566993000: system.ruby.cp_cntrl1.sequencer: Cache miss at [0x138bfc0, line 0x138bfc0]
160566994000: system.ruby.cp_cntrl0.sequencer: Cache miss at [0xfaa3f8, line 0xfaa3c0]
160566995000: system.ruby.cp_cntrl1.sequencer: Cache miss at [0x138bfc0, line 0x138bfc0]
160566996000: system.ruby.cp_cntrl0.sequencer: Cache miss at [0xf90c20, line 0xf90c00]
160566998000: system.ruby.cp_cntrl0.sequencer: Cache miss at [0xc62610, line 0xc62600]
160567000000: system.ruby.cp_cntrl0.sequencer: Cache miss at [0x13a7710, line 0x13a7700]
160567002000: system.ruby.cp_cntrl0.sequencer: Cache miss at [0x13a7710, line 0x13a7700]
160567004000: system.ruby.cp_cntrl0.sequencer: Cache miss at [0x13a7718, line 0x13a7700]
160567006000: system.ruby.cp_cntrl0.sequencer: Cache miss at [0x13a7718, line 0x13a7700]
160567008000: system.ruby.cp_cntrl0.sequencer: Cache miss at [0x13a7718, line 0x13a7700]
160567010000: system.ruby.cp_cntrl0.sequencer: Cache miss at [0x13a7720, line 0x13a7700]
160567012000: system.ruby.cp_cntrl0.sequencer: Cache miss at [0x13a7720, line 0x13a7700]
160567014000: system.ruby.cp_cntrl0.sequencer: Cache miss at [0x13a7720, line 0x13a7700]
160567016000: system.ruby.cp_cntrl0.sequencer: Cache miss at [0x38a48, line 0x38a40]
160567018000: system.ruby.cp_cntrl0.sequencer: Cache miss at [0x3fa8740, line 0x3fa8740]
160567020000: system.ruby.cp_cntrl0.sequencer: Cache miss at [0x10df798, line 0x10df780]
160567022000: system.ruby.cp_cntrl0.sequencer: Cache miss at [0x3fa8748, line 0x3fa8740]
160567024000: system.ruby.cp_cntrl0.sequencer: Cache miss at [0x3fa8748, line 0x3fa8740]
160567026000: system.ruby.cp_cntrl0.sequencer: Cache miss at [0x3fa8740, line 0x3fa8740]
160567028000: system.ruby.cp_cntrl0.sequencer: Cache miss at [0x38a48, line 0x38a40]
160567030000: system.ruby.cp_cntrl0.sequencer: Cache miss at [0xfaa3f0, line 0xfaa3c0]
160567032000: system.ruby.cp_cntrl0.sequencer: Cache miss at [0xfaa3f0, line 0xfaa3c0]
160567034000: system.ruby.cp_cntrl0.sequencer: Cache miss at [0xfaa3f8, line 0xfaa3c0]
160567036000: system.ruby.cp_cntrl0.sequencer: Cache miss at [0xf90c20, line 0xf90c00]
160567038000: system.ruby.cp_cntrl0.sequencer: Cache miss at [0xc62610, line 0xc62600]
160567040000: system.ruby.cp_cntrl0.sequencer: Cache miss at [0x13a7710, line 0x13a7700]
160567042000: system.ruby.cp_cntrl0.sequencer: Cache miss at [0x13a7710, line 0x13a7700]
160567044000: system.ruby.cp_cntrl0.sequencer: Cache miss at [0x13a7718, line 0x13a7700]
160567046000: system.ruby.cp_cntrl0.sequencer: Cache miss at [0x13a7718, line 0x13a7700]
160567048000: system.ruby.cp_cntrl0.sequencer: Cache miss at [0x13a7718, line 0x13a7700]
160567050000: system.ruby.cp_cntrl0.sequencer: Cache miss at [0x13a7720, line 0x13a7700]
160567052000: system.ruby.cp_cntrl0.sequencer: Cache miss at [0x13a7720, line 0x13a7700]
160567054000: system.ruby.cp_cntrl0.sequencer: Cache miss at [0x13a7720, line 0x13a7700]
160567056000: system.ruby.cp_cntrl0.sequencer: Cache miss at [0x38a48, line 0x38a40]
160567058000: system.ruby.cp_cntrl0.sequencer: Cache miss at [0x3fa8740, line 0x3fa8740]
160567060000: system.ruby.cp_cntrl0.sequencer: Cache miss at [0x10df798, line 0x10df780]
160567062000: system.ruby.cp_cntrl0.sequencer: Cache miss at [0x3fa8748, line 0x3fa8740]
160567064000: system.ruby.cp_cntrl0.sequencer: Cache miss at [0x3fa8748, line 0x3fa8740]
160567066000: system.ruby.cp_cntrl0.sequencer: Cache miss at [0x3fa8740, line 0x3fa8740]
160567068000: system.ruby.cp_cntrl0.sequencer: Cache miss at [0x38a48, line 0x38a40]
160567070000: system.ruby.cp_cntrl0.sequencer: Cache miss at [0xfaa3f0, line 0xfaa3c0]
160567072000: system.ruby.cp_cntrl0.sequencer: Cache miss at [0xfaa3f0, line 0xfaa3c0]
160567074000: system.ruby.cp_cntrl0.sequencer: Cache miss at [0xfaa3f8, line 0xfaa3c0]
160567076000: system.ruby.cp_cntrl0.sequencer: Cache miss at [0xf90c20, line 0xf90c00]
160567078000: system.ruby.cp_cntrl0.sequencer: Cache miss at [0xc62610, line 0xc62600]
160567080000: system.ruby.cp_cntrl0.sequencer: Cache miss at [0x13a7710, line 0x13a7700]
160567082000: system.ruby.cp_cntrl0.sequencer: Cache miss at [0x13a7710, line 0x13a7700]
160567084000: system.ruby.cp_cntrl0.sequencer: Cache miss at [0x13a7718, line 0x13a7700]
160567086000: system.ruby.cp_cntrl0.sequencer: Cache miss at [0x13a7718, line 0x13a7700]
160567088000: system.ruby.cp_cntrl0.sequencer: Cache miss at [0x13a7718, line 0x13a7700]
160567090000: system.ruby.cp_cntrl0.sequencer: Cache miss at [0x13a7720, line 0x13a7700]
160567092000: system.ruby.cp_cntrl0.sequencer: Cache miss at [0x13a7720, line 0x13a7700]
160567094000: system.ruby.cp_cntrl0.sequencer: Cache miss at [0x13a7720, line 0x13a7700]
160567096000: system.ruby.cp_cntrl0.sequencer: Cache miss at [0x38a48, line 0x38a40]
160567098000: system.ruby.cp_cntrl0.sequencer: Cache miss at [0x3fa8740, line 0x3fa8740]
160567100000: system.ruby.cp_cntrl0.sequencer: Cache miss at [0x10df798, line 0x10df780]
160567102000: system.ruby.cp_cntrl0.sequencer: Cache miss at [0x3fa8748, line 0x3fa8740]
160567104000: system.ruby.cp_cntrl0.sequencer: Cache miss at [0x3fa8748, line 0x3fa8740]
160567106000: system.ruby.cp_cntrl0.sequencer: Cache miss at [0x3fa8740, line 0x3fa8740]
160567108000: system.ruby.cp_cntrl0.sequencer: Cache miss at [0x38a48, line 0x38a40]
160567110000: system.ruby.cp_cntrl0.sequencer: Cache miss at [0xfaa3f0, line 0xfaa3c0]
160567112000: system.ruby.cp_cntrl0.sequencer: Cache miss at [0xfaa3f0, line 0xfaa3c0]
160567114000: system.ruby.cp_cntrl0.sequencer: Cache miss at [0xfaa3f8, line 0xfaa3c0]
160567116000: system.ruby.cp_cntrl0.sequencer: Cache miss at [0xf90c20, line 0xf90c00]
160567118000: system.ruby.cp_cntrl0.sequencer: Cache miss at [0xc62610, line 0xc62600]
160567120000: system.ruby.cp_cntrl0.sequencer: Cache miss at [0x13a7710, line 0x13a7700]
160567122000: system.ruby.cp_cntrl0.sequencer: Cache miss at [0x13a7710, line 0x13a7700]
160567124000: system.ruby.cp_cntrl0.sequencer: Cache miss at [0x13a7718, line 0x13a7700]
160567126000: system.ruby.cp_cntrl0.sequencer: Cache miss at [0x13a7718, line 0x13a7700]
160567128000: system.ruby.cp_cntrl0.sequencer: Cache miss at [0x13a7718, line 0x13a7700]
160567130000: system.ruby.cp_cntrl0.sequencer: Cache miss at [0x13a7720, line 0x13a7700]
160567132000: system.ruby.cp_cntrl0.sequencer: Cache miss at [0x13a7720, line 0x13a7700]
160567134000: system.ruby.cp_cntrl0.sequencer: Cache miss at [0x13a7720, line 0x13a7700]
160567136000: system.ruby.cp_cntrl0.sequencer: Cache miss at [0x38a48, line 0x38a40]
160567138000: system.ruby.cp_cntrl0.sequencer: Cache miss at [0x3fa8740, line 0x3fa8740]
160567140000: system.ruby.cp_cntrl0.sequencer: Cache miss at [0x10df798, line 0x10df780]
160567142000: system.ruby.cp_cntrl0.sequencer: Cache miss at [0x3fa8748, line 0x3fa8740]
160567144000: system.ruby.cp_cntrl0.sequencer: Cache miss at [0x3fa8748, line 0x3fa8740]
160567146000: system.ruby.cp_cntrl0.sequencer: Cache miss at [0x3fa8740, line 0x3fa8740]
160567148000: system.ruby.cp_cntrl0.sequencer: Cache miss at [0x38a48, line 0x38a40]
160567150000: system.ruby.cp_cntrl0.sequencer: Cache miss at [0xfaa3f0, line 0xfaa3c0]
160567152000: system.ruby.cp_cntrl0.sequencer: Cache miss at [0xfaa3f0, line 0xfaa3c0]
160567154000: system.ruby.cp_cntrl0.sequencer: Cache miss at [0xfaa3f8, line 0xfaa3c0]
160567156000: system.ruby.cp_cntrl0.sequencer: Cache miss at [0xf90c20, line 0xf90c00]
160567158000: system.ruby.cp_cntrl0.sequencer: Cache miss at [0xc62610, line 0xc62600]
160567160000: system.ruby.cp_cntrl0.sequencer: Cache miss at [0x13a7710, line 0x13a7700]
160567162000: system.ruby.cp_cntrl0.sequencer: Cache miss at [0x13a7710, line 0x13a7700]
160567164000: system.ruby.cp_cntrl0.sequencer: Cache miss at [0x13a7718, line 0x13a7700]
160567166000: system.ruby.cp_cntrl0.sequencer: Cache miss at [0x13a7718, line 0x13a7700]
160567168000: system.ruby.cp_cntrl0.sequencer: Cache miss at [0x13a7718, line 0x13a7700]
160567170000: system.ruby.cp_cntrl0.sequencer: Cache miss at [0x13a7720, line 0x13a7700]
160567172000: system.ruby.cp_cntrl0.sequencer: Cache miss at [0x13a7720, line 0x13a7700]
160567174000: system.ruby.cp_cntrl0.sequencer: Cache miss at [0x13a7720, line 0x13a7700]
160567176000: system.ruby.cp_cntrl0.sequencer: Cache miss at [0x38a48, line 0x38a40]
160567178000: system.ruby.cp_cntrl0.sequencer: Cache miss at [0x3fa8740, line 0x3fa8740]
160567180000: system.ruby.cp_cntrl0.sequencer: Cache miss at [0x10df798, line 0x10df780]
160567182000: system.ruby.cp_cntrl0.sequencer: Cache miss at [0x3fa8748, line 0x3fa8740]
160567184000: system.ruby.cp_cntrl0.sequencer: Cache miss at [0x3fa8748, line 0x3fa8740]
160567186000: system.ruby.cp_cntrl0.sequencer: Cache miss at [0x3fa8740, line 0x3fa8740]
160567188000: system.ruby.cp_cntrl0.sequencer: Cache miss at [0x38a48, line 0x38a40]
160567190000: system.ruby.cp_cntrl0.sequencer: Cache miss at [0xfaa3f0, line 0xfaa3c0]
160567192000: system.ruby.cp_cntrl0.sequencer: Cache miss at [0xfaa3f0, line 0xfaa3c0]
160567194000: system.ruby.cp_cntrl0.sequencer: Cache miss at [0xfaa3f8, line 0xfaa3c0]
160567196000: system.ruby.cp_cntrl0.sequencer: Cache miss at [0xf90c20, line 0xf90c00]
160567198000: system.ruby.cp_cntrl0.sequencer: Cache miss at [0xc62610, line 0xc62600]
160567200000: system.ruby.cp_cntrl0.sequencer: Cache miss at [0x13a7710, line 0x13a7700]
160567202000: system.ruby.cp_cntrl0.sequencer: Cache miss at [0x13a7710, line 0x13a7700]
160567204000: system.ruby.cp_cntrl0.sequencer: Cache miss at [0x13a7718, line 0x13a7700]
160567206000: system.ruby.cp_cntrl0.sequencer: Cache miss at [0x13a7718, line 0x13a7700]
160567208000: system.ruby.cp_cntrl0.sequencer: Cache miss at [0x13a7718, line 0x13a7700]
160567210000: system.ruby.cp_cntrl0.sequencer: Cache miss at [0x13a7720, line 0x13a7700]
160567212000: system.ruby.cp_cntrl0.sequencer: Cache miss at [0x13a7720, line 0x13a7700]
160567214000: system.ruby.cp_cntrl0.sequencer: Cache miss at [0x13a7720, line 0x13a7700]
160567216000: system.ruby.cp_cntrl0.sequencer: Cache miss at [0x38a48, line 0x38a40]
160567218000: system.ruby.cp_cntrl0.sequencer: Cache miss at [0x3fa8740, line 0x3fa8740]
160567219275: system.ruby.sqc_cntrl0.sequencer: Cache hit at [0x401d040, line 0x401d040]
160567220000: system.ruby.cp_cntrl0.sequencer: Cache miss at [0x10df798, line 0x10df780]
160567222000: system.ruby.cp_cntrl0.sequencer: Cache miss at [0x3fa8748, line 0x3fa8740]
160567224000: system.ruby.cp_cntrl0.sequencer: Cache miss at [0x3fa8748, line 0x3fa8740]
160567226000: system.ruby.cp_cntrl0.sequencer: Cache miss at [0x3fa8740, line 0x3fa8740]
160567228000: system.ruby.cp_cntrl0.sequencer: Cache miss at [0x38a48, line 0x38a40]
160567230000: system.ruby.cp_cntrl0.sequencer: Cache miss at [0xfaa3f0, line 0xfaa3c0]
160567232000: system.ruby.cp_cntrl0.sequencer: Cache miss at [0xfaa3f0, line 0xfaa3c0]
160567234000: system.ruby.cp_cntrl0.sequencer: Cache miss at [0xfaa3f8, line 0xfaa3c0]
160567236000: system.ruby.cp_cntrl0.sequencer: Cache miss at [0xf90c20, line 0xf90c00]
160567238000: system.ruby.cp_cntrl0.sequencer: Cache miss at [0xc62610, line 0xc62600]
160567240000: system.ruby.cp_cntrl0.sequencer: Cache miss at [0x13a7710, line 0x13a7700]
160567242000: system.ruby.cp_cntrl0.sequencer: Cache miss at [0x13a7710, line 0x13a7700]
160567244000: system.ruby.cp_cntrl0.sequencer: Cache miss at [0x13a7718, line 0x13a7700]
160567246000: system.ruby.cp_cntrl0.sequencer: Cache miss at [0x13a7718, line 0x13a7700]
160567248000: system.ruby.cp_cntrl0.sequencer: Cache miss at [0x13a7718, line 0x13a7700]
160567250000: system.ruby.cp_cntrl0.sequencer: Cache miss at [0x13a7720, line 0x13a7700]
160567252000: system.ruby.cp_cntrl0.sequencer: Cache miss at [0x13a7720, line 0x13a7700]
160567254000: system.ruby.cp_cntrl0.sequencer: Cache miss at [0x13a7720, line 0x13a7700]
160567256000: system.ruby.cp_cntrl0.sequencer: Cache miss at [0x38a48, line 0x38a40]
160567258000: system.ruby.cp_cntrl0.sequencer: Cache miss at [0x3fa8740, line 0x3fa8740]
160567260000: system.ruby.cp_cntrl0.sequencer: Cache miss at [0x10df798, line 0x10df780]
160567262000: system.ruby.cp_cntrl0.sequencer: Cache miss at [0x3fa8748, line 0x3fa8740]
160567264000: system.ruby.cp_cntrl0.sequencer: Cache miss at [0x3fa8748, line 0x3fa8740]
160567266000: system.ruby.cp_cntrl0.sequencer: Cache miss at [0x3fa8740, line 0x3fa8740]
160567268000: system.ruby.cp_cntrl0.sequencer: Cache miss at [0x38a48, line 0x38a40]
160567270000: system.ruby.cp_cntrl0.sequencer: Cache miss at [0xfaa3f0, line 0xfaa3c0]
160567272000: system.ruby.cp_cntrl0.sequencer: Cache miss at [0xfaa3f0, line 0xfaa3c0]
160567274000: system.ruby.cp_cntrl0.sequencer: Cache miss at [0xfaa3f8, line 0xfaa3c0]
160567276000: system.ruby.cp_cntrl0.sequencer: Cache miss at [0xf90c20, line 0xf90c00]
160567278000: system.ruby.cp_cntrl0.sequencer: Cache miss at [0xc62610, line 0xc62600]
160567280000: system.ruby.cp_cntrl0.sequencer: Cache miss at [0x13a7710, line 0x13a7700]
160567282000: system.ruby.cp_cntrl0.sequencer: Cache miss at [0x13a7710, line 0x13a7700]
160567284000: system.ruby.cp_cntrl0.sequencer: Cache miss at [0x13a7718, line 0x13a7700]
160567286000: system.ruby.cp_cntrl0.sequencer: Cache miss at [0x13a7718, line 0x13a7700]
160567288000: system.ruby.cp_cntrl0.sequencer: Cache miss at [0x13a7718, line 0x13a7700]
160567290000: system.ruby.cp_cntrl0.sequencer: Cache miss at [0x13a7720, line 0x13a7700]
160567292000: system.ruby.cp_cntrl0.sequencer: Cache miss at [0x13a7720, line 0x13a7700]
160567294000: system.ruby.cp_cntrl0.sequencer: Cache miss at [0x13a7720, line 0x13a7700]
160567296000: system.ruby.cp_cntrl0.sequencer: Cache miss at [0x38a48, line 0x38a40]
160567298000: system.ruby.cp_cntrl0.sequencer: Cache miss at [0x3fa8740, line 0x3fa8740]
160567300000: system.ruby.cp_cntrl0.sequencer: Cache miss at [0x10df798, line 0x10df780]
160567302000: system.ruby.cp_cntrl0.sequencer: Cache miss at [0x3fa8748, line 0x3fa8740]
160567304000: system.ruby.cp_cntrl0.sequencer: Cache miss at [0x3fa8748, line 0x3fa8740]
160567306000: system.ruby.cp_cntrl0.sequencer: Cache miss at [0x3fa8740, line 0x3fa8740]
160567308000: system.ruby.cp_cntrl0.sequencer: Cache miss at [0x38a48, line 0x38a40]
160567310000: system.ruby.cp_cntrl0.sequencer: Cache miss at [0xfaa3f0, line 0xfaa3c0]
160567312000: system.ruby.cp_cntrl0.sequencer: Cache miss at [0xfaa3f0, line 0xfaa3c0]
160567314000: system.ruby.cp_cntrl1.sequencer: Cache hit at [0x10df900, line 0x10df900]
160567314000: system.ruby.cp_cntrl0.sequencer: Cache miss at [0xfaa3f8, line 0xfaa3c0]
160567316000: system.ruby.cp_cntrl0.sequencer: Cache miss at [0xf90c20, line 0xf90c00]
160567316000: system.ruby.cp_cntrl1.sequencer: Cache miss at [0x138bfc0, line 0x138bfc0]
160567318000: system.ruby.cp_cntrl1.sequencer: Cache miss at [0x138bfc8, line 0x138bfc0]
160567318000: system.ruby.cp_cntrl0.sequencer: Cache miss at [0xc62610, line 0xc62600]
160567320000: system.ruby.cp_cntrl0.sequencer: Cache miss at [0x13a7710, line 0x13a7700]
160567320000: system.ruby.cp_cntrl1.sequencer: Cache miss at [0x138bfc8, line 0x138bfc0]
160567322000: system.ruby.cp_cntrl0.sequencer: Cache miss at [0x13a7710, line 0x13a7700]
160567324000: system.ruby.cp_cntrl0.sequencer: Cache miss at [0x13a7718, line 0x13a7700]
160567326000: system.ruby.cp_cntrl0.sequencer: Cache miss at [0x13a7718, line 0x13a7700]
160567328000: system.ruby.cp_cntrl0.sequencer: Cache miss at [0x13a7718, line 0x13a7700]
160567330000: system.ruby.cp_cntrl0.sequencer: Cache miss at [0x13a7720, line 0x13a7700]
160567332000: system.ruby.cp_cntrl0.sequencer: Cache miss at [0x13a7720, line 0x13a7700]
160567334000: system.ruby.cp_cntrl0.sequencer: Cache miss at [0x13a7720, line 0x13a7700]
160567336000: system.ruby.cp_cntrl0.sequencer: Cache miss at [0x38a48, line 0x38a40]
160567338000: system.ruby.cp_cntrl0.sequencer: Cache miss at [0x3fa8740, line 0x3fa8740]
160567340000: system.ruby.cp_cntrl0.sequencer: Cache miss at [0x10df798, line 0x10df780]
160567342000: system.ruby.cp_cntrl0.sequencer: Cache miss at [0x3fa8748, line 0x3fa8740]
160567344000: system.ruby.cp_cntrl0.sequencer: Cache miss at [0x3fa8748, line 0x3fa8740]
160567346000: system.ruby.cp_cntrl0.sequencer: Cache miss at [0x3fa8740, line 0x3fa8740]
160567348000: system.ruby.cp_cntrl0.sequencer: Cache miss at [0x38a48, line 0x38a40]
160567350000: system.ruby.cp_cntrl0.sequencer: Cache miss at [0xfaa3f0, line 0xfaa3c0]
160567352000: system.ruby.cp_cntrl0.sequencer: Cache miss at [0xfaa3f0, line 0xfaa3c0]
160567354000: system.ruby.cp_cntrl0.sequencer: Cache miss at [0xfaa3f8, line 0xfaa3c0]
160567356000: system.ruby.cp_cntrl0.sequencer: Cache miss at [0xf90c20, line 0xf90c00]
160567358000: system.ruby.cp_cntrl0.sequencer: Cache miss at [0xc62610, line 0xc62600]
160567360000: system.ruby.cp_cntrl0.sequencer: Cache miss at [0x13a7710, line 0x13a7700]
160567362000: system.ruby.cp_cntrl0.sequencer: Cache miss at [0x13a7710, line 0x13a7700]
160567364000: system.ruby.cp_cntrl0.sequencer: Cache miss at [0x13a7718, line 0x13a7700]
160567366000: system.ruby.cp_cntrl0.sequencer: Cache miss at [0x13a7718, line 0x13a7700]
160567368000: system.ruby.cp_cntrl0.sequencer: Cache miss at [0x13a7718, line 0x13a7700]
160567370000: system.ruby.cp_cntrl0.sequencer: Cache miss at [0x13a7720, line 0x13a7700]
160567372000: system.ruby.cp_cntrl0.sequencer: Cache miss at [0x13a7720, line 0x13a7700]
160567374000: system.ruby.cp_cntrl0.sequencer: Cache miss at [0x13a7720, line 0x13a7700]
160567376000: system.ruby.cp_cntrl0.sequencer: Cache miss at [0x38a48, line 0x38a40]
160567378000: system.ruby.cp_cntrl0.sequencer: Cache miss at [0x3fa8740, line 0x3fa8740]
160567380000: system.ruby.cp_cntrl0.sequencer: Cache miss at [0x10df798, line 0x10df780]
160567382000: system.ruby.cp_cntrl0.sequencer: Cache miss at [0x3fa8748, line 0x3fa8740]
160567384000: system.ruby.cp_cntrl0.sequencer: Cache miss at [0x3fa8748, line 0x3fa8740]
160567386000: system.ruby.cp_cntrl0.sequencer: Cache miss at [0x3fa8740, line 0x3fa8740]
160567388000: system.ruby.cp_cntrl0.sequencer: Cache miss at [0x38a48, line 0x38a40]
160567390000: system.ruby.cp_cntrl0.sequencer: Cache miss at [0xfaa3f0, line 0xfaa3c0]
160567392000: system.ruby.cp_cntrl0.sequencer: Cache miss at [0xfaa3f0, line 0xfaa3c0]
160567394000: system.ruby.cp_cntrl0.sequencer: Cache miss at [0xfaa3f8, line 0xfaa3c0]
160567396000: system.ruby.cp_cntrl0.sequencer: Cache miss at [0xf90c20, line 0xf90c00]
160567398000: system.ruby.cp_cntrl0.sequencer: Cache miss at [0xc62610, line 0xc62600]
160567400000: system.ruby.cp_cntrl0.sequencer: Cache miss at [0x13a7710, line 0x13a7700]
160567402000: system.ruby.cp_cntrl0.sequencer: Cache miss at [0x13a7710, line 0x13a7700]
160567404000: system.ruby.cp_cntrl0.sequencer: Cache miss at [0x13a7718, line 0x13a7700]
160567406000: system.ruby.cp_cntrl0.sequencer: Cache miss at [0x13a7718, line 0x13a7700]
160567408000: system.ruby.cp_cntrl0.sequencer: Cache miss at [0x13a7718, line 0x13a7700]
160567410000: system.ruby.cp_cntrl0.sequencer: Cache miss at [0x13a7720, line 0x13a7700]
160567412000: system.ruby.cp_cntrl0.sequencer: Cache miss at [0x13a7720, line 0x13a7700]
160567414000: system.ruby.cp_cntrl0.sequencer: Cache miss at [0x13a7720, line 0x13a7700]
160567416000: system.ruby.cp_cntrl0.sequencer: Cache miss at [0x38a48, line 0x38a40]
160567418000: system.ruby.cp_cntrl0.sequencer: Cache miss at [0x3fa8740, line 0x3fa8740]
160567420000: system.ruby.cp_cntrl0.sequencer: Cache miss at [0x10df798, line 0x10df780]
160567422000: system.ruby.cp_cntrl0.sequencer: Cache miss at [0x3fa8748, line 0x3fa8740]
160567424000: system.ruby.cp_cntrl0.sequencer: Cache miss at [0x3fa8748, line 0x3fa8740]
160567426000: system.ruby.cp_cntrl0.sequencer: Cache miss at [0x3fa8740, line 0x3fa8740]
160567428000: system.ruby.cp_cntrl0.sequencer: Cache miss at [0x38a48, line 0x38a40]
160567430000: system.ruby.cp_cntrl0.sequencer: Cache miss at [0xfaa3f0, line 0xfaa3c0]
160567432000: system.ruby.cp_cntrl0.sequencer: Cache miss at [0xfaa3f0, line 0xfaa3c0]
160567434000: system.ruby.cp_cntrl0.sequencer: Cache miss at [0xfaa3f8, line 0xfaa3c0]
160567436000: system.ruby.cp_cntrl0.sequencer: Cache miss at [0xf90c20, line 0xf90c00]
160567438000: system.ruby.cp_cntrl0.sequencer: Cache miss at [0xc62610, line 0xc62600]
160567440000: system.ruby.cp_cntrl0.sequencer: Cache miss at [0x13a7710, line 0x13a7700]
160567442000: system.ruby.cp_cntrl0.sequencer: Cache miss at [0x13a7710, line 0x13a7700]
160567444000: system.ruby.cp_cntrl0.sequencer: Cache miss at [0x13a7718, line 0x13a7700]
160567446000: system.ruby.cp_cntrl0.sequencer: Cache miss at [0x13a7718, line 0x13a7700]
160567448000: system.ruby.cp_cntrl0.sequencer: Cache miss at [0x13a7718, line 0x13a7700]
160567450000: system.ruby.cp_cntrl0.sequencer: Cache miss at [0x13a7720, line 0x13a7700]
160567452000: system.ruby.cp_cntrl0.sequencer: Cache miss at [0x13a7720, line 0x13a7700]
160567454000: system.ruby.cp_cntrl0.sequencer: Cache miss at [0x13a7720, line 0x13a7700]
160567456000: system.ruby.cp_cntrl0.sequencer: Cache miss at [0x38a48, line 0x38a40]
160567458000: system.ruby.cp_cntrl0.sequencer: Cache miss at [0x3fa8740, line 0x3fa8740]
160567460000: system.ruby.cp_cntrl0.sequencer: Cache miss at [0x10df798, line 0x10df780]
160567462000: system.ruby.cp_cntrl0.sequencer: Cache miss at [0x3fa8748, line 0x3fa8740]
160567464000: system.ruby.cp_cntrl0.sequencer: Cache miss at [0x3fa8748, line 0x3fa8740]
160567466000: system.ruby.cp_cntrl0.sequencer: Cache miss at [0x3fa8740, line 0x3fa8740]
160567468000: system.ruby.cp_cntrl0.sequencer: Cache miss at [0x38a48, line 0x38a40]
160567470000: system.ruby.cp_cntrl0.sequencer: Cache miss at [0xfaa3f0, line 0xfaa3c0]
160567472000: system.ruby.cp_cntrl0.sequencer: Cache miss at [0xfaa3f0, line 0xfaa3c0]
160567474000: system.ruby.cp_cntrl0.sequencer: Cache miss at [0xfaa3f8, line 0xfaa3c0]
160567476000: system.ruby.cp_cntrl0.sequencer: Cache miss at [0xf90c20, line 0xf90c00]
160567478000: system.ruby.cp_cntrl0.sequencer: Cache miss at [0xc62610, line 0xc62600]
160567480000: system.ruby.cp_cntrl0.sequencer: Cache miss at [0x13a7710, line 0x13a7700]
160567482000: system.ruby.cp_cntrl0.sequencer: Cache miss at [0x13a7710, line 0x13a7700]
160567484000: system.ruby.cp_cntrl0.sequencer: Cache miss at [0x13a7718, line 0x13a7700]
160567486000: system.ruby.cp_cntrl0.sequencer: Cache miss at [0x13a7718, line 0x13a7700]
160567488000: system.ruby.cp_cntrl0.sequencer: Cache miss at [0x13a7718, line 0x13a7700]
160567490000: system.ruby.cp_cntrl0.sequencer: Cache miss at [0x13a7720, line 0x13a7700]
160567492000: system.ruby.cp_cntrl0.sequencer: Cache miss at [0x13a7720, line 0x13a7700]
160567494000: system.ruby.cp_cntrl0.sequencer: Cache miss at [0x13a7720, line 0x13a7700]
160567496000: system.ruby.cp_cntrl0.sequencer: Cache miss at [0x38a48, line 0x38a40]
160567498000: system.ruby.cp_cntrl0.sequencer: Cache miss at [0x3fa8740, line 0x3fa8740]
160567500000: system.ruby.cp_cntrl0.sequencer: Cache miss at [0x10df798, line 0x10df780]
160567502000: system.ruby.cp_cntrl0.sequencer: Cache miss at [0x3fa8748, line 0x3fa8740]
160567504000: system.ruby.cp_cntrl0.sequencer: Cache miss at [0x3fa8748, line 0x3fa8740]
160567506000: system.ruby.cp_cntrl0.sequencer: Cache miss at [0x3fa8740, line 0x3fa8740]
160567508000: system.ruby.cp_cntrl0.sequencer: Cache miss at [0x38a48, line 0x38a40]
160567510000: system.ruby.cp_cntrl0.sequencer: Cache miss at [0xfaa3f0, line 0xfaa3c0]
160567512000: system.ruby.cp_cntrl0.sequencer: Cache miss at [0xfaa3f0, line 0xfaa3c0]
160567514000: system.ruby.cp_cntrl0.sequencer: Cache miss at [0xfaa3f8, line 0xfaa3c0]
160567516000: system.ruby.cp_cntrl0.sequencer: Cache miss at [0xf90c20, line 0xf90c00]
160567518000: system.ruby.cp_cntrl0.sequencer: Cache miss at [0xc62610, line 0xc62600]
160567520000: system.ruby.cp_cntrl0.sequencer: Cache miss at [0x13a7710, line 0x13a7700]
160567522000: system.ruby.cp_cntrl0.sequencer: Cache miss at [0x13a7710, line 0x13a7700]
160567524000: system.ruby.cp_cntrl0.sequencer: Cache miss at [0x13a7718, line 0x13a7700]
160567526000: system.ruby.cp_cntrl0.sequencer: Cache miss at [0x13a7718, line 0x13a7700]
160567528000: system.ruby.cp_cntrl0.sequencer: Cache miss at [0x13a7718, line 0x13a7700]
160567530000: system.ruby.cp_cntrl0.sequencer: Cache miss at [0x13a7720, line 0x13a7700]
160567532000: system.ruby.cp_cntrl0.sequencer: Cache miss at [0x13a7720, line 0x13a7700]
160567534000: system.ruby.cp_cntrl0.sequencer: Cache miss at [0x13a7720, line 0x13a7700]
160567536000: system.ruby.cp_cntrl0.sequencer: Cache miss at [0x38a48, line 0x38a40]
160567538000: system.ruby.cp_cntrl0.sequencer: Cache miss at [0x3fa8740, line 0x3fa8740]
160567540000: system.ruby.cp_cntrl0.sequencer: Cache miss at [0x10df798, line 0x10df780]
160567542000: system.ruby.cp_cntrl0.sequencer: Cache miss at [0x3fa8748, line 0x3fa8740]
160567544000: system.ruby.cp_cntrl0.sequencer: Cache miss at [0x3fa8748, line 0x3fa8740]
160567546000: system.ruby.cp_cntrl0.sequencer: Cache miss at [0x3fa8740, line 0x3fa8740]
160567548000: system.ruby.cp_cntrl0.sequencer: Cache miss at [0x38a48, line 0x38a40]
160567550000: system.ruby.cp_cntrl0.sequencer: Cache miss at [0xfaa3f0, line 0xfaa3c0]
160567552000: system.ruby.cp_cntrl0.sequencer: Cache miss at [0xfaa3f0, line 0xfaa3c0]
160567554000: system.ruby.cp_cntrl0.sequencer: Cache miss at [0xfaa3f8, line 0xfaa3c0]
160567556000: system.ruby.cp_cntrl0.sequencer: Cache miss at [0xf90c20, line 0xf90c00]
160567558000: system.ruby.cp_cntrl0.sequencer: Cache miss at [0xc62610, line 0xc62600]
160567560000: system.ruby.cp_cntrl0.sequencer: Cache miss at [0x13a7710, line 0x13a7700]
160567562000: system.ruby.cp_cntrl0.sequencer: Cache miss at [0x13a7710, line 0x13a7700]
160567564000: system.ruby.cp_cntrl0.sequencer: Cache miss at [0x13a7718, line 0x13a7700]
160567566000: system.ruby.cp_cntrl0.sequencer: Cache miss at [0x13a7718, line 0x13a7700]
160567568000: system.ruby.cp_cntrl0.sequencer: Cache miss at [0x13a7718, line 0x13a7700]
160567570000: system.ruby.cp_cntrl0.sequencer: Cache miss at [0x13a7720, line 0x13a7700]
160567572000: system.ruby.cp_cntrl0.sequencer: Cache miss at [0x13a7720, line 0x13a7700]
160567574000: system.ruby.cp_cntrl0.sequencer: Cache miss at [0x13a7720, line 0x13a7700]
160567576000: system.ruby.cp_cntrl0.sequencer: Cache miss at [0x38a48, line 0x38a40]
160567578000: system.ruby.cp_cntrl0.sequencer: Cache miss at [0x3fa8740, line 0x3fa8740]
160567580000: system.ruby.cp_cntrl0.sequencer: Cache miss at [0x10df798, line 0x10df780]
160567582000: system.ruby.cp_cntrl0.sequencer: Cache miss at [0x3fa8748, line 0x3fa8740]
160567584000: system.ruby.cp_cntrl0.sequencer: Cache miss at [0x3fa8748, line 0x3fa8740]
160567586000: system.ruby.cp_cntrl0.sequencer: Cache miss at [0x3fa8740, line 0x3fa8740]
160567588000: system.ruby.cp_cntrl0.sequencer: Cache miss at [0x38a48, line 0x38a40]
160567590000: system.ruby.cp_cntrl0.sequencer: Cache miss at [0xfaa3f0, line 0xfaa3c0]
160567592000: system.ruby.cp_cntrl0.sequencer: Cache miss at [0xfaa3f0, line 0xfaa3c0]
160567594000: system.ruby.cp_cntrl0.sequencer: Cache miss at [0xfaa3f8, line 0xfaa3c0]
160567596000: system.ruby.cp_cntrl0.sequencer: Cache miss at [0xf90c20, line 0xf90c00]
160567598000: system.ruby.cp_cntrl0.sequencer: Cache miss at [0xc62610, line 0xc62600]
160567600000: system.ruby.cp_cntrl0.sequencer: Cache miss at [0x13a7710, line 0x13a7700]
160567602000: system.ruby.cp_cntrl0.sequencer: Cache miss at [0x13a7710, line 0x13a7700]
160567604000: system.ruby.cp_cntrl0.sequencer: Cache miss at [0x13a7718, line 0x13a7700]
160567606000: system.ruby.cp_cntrl0.sequencer: Cache miss at [0x13a7718, line 0x13a7700]
160567608000: system.ruby.cp_cntrl0.sequencer: Cache miss at [0x13a7718, line 0x13a7700]
160567610000: system.ruby.cp_cntrl0.sequencer: Cache miss at [0x13a7720, line 0x13a7700]
160567612000: system.ruby.cp_cntrl0.sequencer: Cache miss at [0x13a7720, line 0x13a7700]
160567614000: system.ruby.cp_cntrl0.sequencer: Cache miss at [0x13a7720, line 0x13a7700]
160567615545: system.ruby.scalar_cntrl0.sequencer: Cache hit at [0x3eb5000, line 0x3eb5000]
160567616000: system.ruby.cp_cntrl0.sequencer: Cache miss at [0x38a48, line 0x38a40]
160567618000: system.ruby.cp_cntrl0.sequencer: Cache miss at [0x3fa8740, line 0x3fa8740]
160567620000: system.ruby.cp_cntrl0.sequencer: Cache miss at [0x10df798, line 0x10df780]
160567622000: system.ruby.cp_cntrl0.sequencer: Cache miss at [0x3fa8748, line 0x3fa8740]
160567624000: system.ruby.cp_cntrl0.sequencer: Cache miss at [0x3fa8748, line 0x3fa8740]
160567626000: system.ruby.cp_cntrl0.sequencer: Cache miss at [0x3fa8740, line 0x3fa8740]
160567628000: system.ruby.cp_cntrl0.sequencer: Cache miss at [0x38a48, line 0x38a40]
160567630000: system.ruby.cp_cntrl0.sequencer: Cache miss at [0xfaa3f0, line 0xfaa3c0]
160567632000: system.ruby.cp_cntrl0.sequencer: Cache miss at [0xfaa3f0, line 0xfaa3c0]
160567634000: system.ruby.cp_cntrl0.sequencer: Cache miss at [0xfaa3f8, line 0xfaa3c0]
160567636000: system.ruby.cp_cntrl0.sequencer: Cache miss at [0xf90c20, line 0xf90c00]
160567638000: system.ruby.cp_cntrl0.sequencer: Cache miss at [0xc62610, line 0xc62600]
160567639000: system.ruby.cp_cntrl1.sequencer: Cache hit at [0x10d5bc8, line 0x10d5bc0]
160567640000: system.ruby.cp_cntrl0.sequencer: Cache miss at [0x13a7710, line 0x13a7700]
160567641000: system.ruby.cp_cntrl1.sequencer: Cache miss at [0x10d5bc8, line 0x10d5bc0]
160567642000: system.ruby.cp_cntrl0.sequencer: Cache miss at [0x13a7710, line 0x13a7700]
160567643000: system.ruby.cp_cntrl1.sequencer: Cache miss at [0x138bfd0, line 0x138bfc0]
160567644000: system.ruby.cp_cntrl0.sequencer: Cache miss at [0x13a7718, line 0x13a7700]
160567645000: system.ruby.cp_cntrl1.sequencer: Cache miss at [0x138bfd0, line 0x138bfc0]
160567646000: system.ruby.cp_cntrl0.sequencer: Cache miss at [0x13a7718, line 0x13a7700]
160567647000: system.ruby.cp_cntrl1.sequencer: Cache miss at [0x138bfd0, line 0x138bfc0]
160567648000: system.ruby.cp_cntrl0.sequencer: Cache miss at [0x13a7718, line 0x13a7700]
160567649000: system.ruby.cp_cntrl1.sequencer: Cache miss at [0x138bfd8, line 0x138bfc0]
160567650000: system.ruby.cp_cntrl0.sequencer: Cache miss at [0x13a7720, line 0x13a7700]
160567651000: system.ruby.cp_cntrl1.sequencer: Cache miss at [0x138bfd8, line 0x138bfc0]
160567652000: system.ruby.cp_cntrl0.sequencer: Cache miss at [0x13a7720, line 0x13a7700]
160567653000: system.ruby.cp_cntrl1.sequencer: Cache miss at [0x139cc68, line 0x139cc40]
160567654000: system.ruby.cp_cntrl0.sequencer: Cache miss at [0x13a7720, line 0x13a7700]
160567655000: system.ruby.cp_cntrl1.sequencer: Cache miss at [0xf9b290, line 0xf9b280]
160567656000: system.ruby.cp_cntrl0.sequencer: Cache miss at [0x38a48, line 0x38a40]
160567657000: system.ruby.cp_cntrl1.sequencer: Cache miss at [0xf9b290, line 0xf9b280]
160567658000: system.ruby.cp_cntrl0.sequencer: Cache miss at [0x3fa8740, line 0x3fa8740]
160567659000: system.ruby.cp_cntrl1.sequencer: Cache miss at [0xf9b298, line 0xf9b280]
160567660000: system.ruby.cp_cntrl0.sequencer: Cache miss at [0x10df798, line 0x10df780]
160567661000: system.ruby.cp_cntrl1.sequencer: Cache miss at [0xfaa0d0, line 0xfaa0c0]
160567662000: system.ruby.cp_cntrl0.sequencer: Cache miss at [0x3fa8748, line 0x3fa8740]
160567663000: system.ruby.cp_cntrl1.sequencer: Cache miss at [0xfaa0d0, line 0xfaa0c0]
160567664000: system.ruby.cp_cntrl0.sequencer: Cache miss at [0x3fa8748, line 0x3fa8740]
160567665000: system.ruby.cp_cntrl1.sequencer: Cache miss at [0xfaa0d8, line 0xfaa0c0]
160567666000: system.ruby.cp_cntrl0.sequencer: Cache miss at [0x3fa8740, line 0x3fa8740]
160567668000: system.ruby.cp_cntrl0.sequencer: Cache miss at [0x38a48, line 0x38a40]
160567670000: system.ruby.cp_cntrl0.sequencer: Cache miss at [0xfaa3f0, line 0xfaa3c0]
160567672000: system.ruby.cp_cntrl0.sequencer: Cache miss at [0xfaa3f0, line 0xfaa3c0]
160567674000: system.ruby.cp_cntrl0.sequencer: Cache miss at [0xfaa3f8, line 0xfaa3c0]
160567676000: system.ruby.cp_cntrl0.sequencer: Cache miss at [0xf90c20, line 0xf90c00]
160567678000: system.ruby.cp_cntrl0.sequencer: Cache miss at [0xc62610, line 0xc62600]
160567680000: system.ruby.cp_cntrl0.sequencer: Cache miss at [0x13a7710, line 0x13a7700]
160567682000: system.ruby.cp_cntrl0.sequencer: Cache miss at [0x13a7710, line 0x13a7700]
160567684000: system.ruby.cp_cntrl0.sequencer: Cache miss at [0x13a7718, line 0x13a7700]
160567685000: system.ruby.cp_cntrl1.sequencer: Cache miss at [0xfa80a0, line 0xfa8080]
160567686000: system.ruby.cp_cntrl0.sequencer: Cache miss at [0x13a7718, line 0x13a7700]
160567687000: system.ruby.cp_cntrl1.sequencer: Cache miss at [0x4aea0, line 0x4ae80]
160567688000: system.ruby.cp_cntrl0.sequencer: Cache miss at [0x13a7718, line 0x13a7700]
160567689000: system.ruby.cp_cntrl1.sequencer: Cache miss at [0xc906d0, line 0xc906c0]
160567690000: system.ruby.cp_cntrl0.sequencer: Cache miss at [0x13a7720, line 0x13a7700]
160567691000: system.ruby.cp_cntrl1.sequencer: Cache miss at [0xc906d0, line 0xc906c0]
160567692000: system.ruby.cp_cntrl0.sequencer: Cache miss at [0x13a7720, line 0x13a7700]
160567693000: system.ruby.cp_cntrl1.sequencer: Cache miss at [0xc906d8, line 0xc906c0]
160567694000: system.ruby.cp_cntrl0.sequencer: Cache miss at [0x13a7720, line 0x13a7700]
160567695000: system.ruby.cp_cntrl1.sequencer: Cache miss at [0x53ef8, line 0x53ec0]
160567696000: system.ruby.cp_cntrl0.sequencer: Cache miss at [0x38a48, line 0x38a40]
160567697000: system.ruby.cp_cntrl1.sequencer: Cache miss at [0xc906d8, line 0xc906c0]
160567698000: system.ruby.cp_cntrl0.sequencer: Cache miss at [0x3fa8740, line 0x3fa8740]
160567699000: system.ruby.cp_cntrl1.sequencer: Cache miss at [0xc906e0, line 0xc906c0]
160567700000: system.ruby.cp_cntrl0.sequencer: Cache miss at [0x10df798, line 0x10df780]
160567701000: system.ruby.cp_cntrl1.sequencer: Cache miss at [0xc84e48, line 0xc84e40]
160567702000: system.ruby.cp_cntrl0.sequencer: Cache miss at [0x3fa8748, line 0x3fa8740]
160567703000: system.ruby.cp_cntrl1.sequencer: Cache miss at [0xc906e0, line 0xc906c0]
160567704000: system.ruby.cp_cntrl0.sequencer: Cache miss at [0x3fa8748, line 0x3fa8740]
160567705000: system.ruby.cp_cntrl1.sequencer: Cache miss at [0xc906e0, line 0xc906c0]
160567706000: system.ruby.cp_cntrl0.sequencer: Cache miss at [0x3fa8740, line 0x3fa8740]
160567707000: system.ruby.cp_cntrl1.sequencer: Cache miss at [0xc906e8, line 0xc906c0]
160567708000: system.ruby.cp_cntrl0.sequencer: Cache miss at [0x38a48, line 0x38a40]
160567709000: system.ruby.cp_cntrl1.sequencer: Cache miss at [0xc906e8, line 0xc906c0]
160567710000: system.ruby.cp_cntrl0.sequencer: Cache miss at [0xfaa3f0, line 0xfaa3c0]
160567711000: system.ruby.cp_cntrl1.sequencer: Cache miss at [0xc906e8, line 0xc906c0]
160567712000: system.ruby.cp_cntrl0.sequencer: Cache miss at [0xfaa3f0, line 0xfaa3c0]
160567713000: system.ruby.cp_cntrl1.sequencer: Cache miss at [0xc906f0, line 0xc906c0]
160567714000: system.ruby.cp_cntrl0.sequencer: Cache miss at [0xfaa3f8, line 0xfaa3c0]
160567716000: system.ruby.cp_cntrl0.sequencer: Cache miss at [0xf90c20, line 0xf90c00]
160567718000: system.ruby.cp_cntrl0.sequencer: Cache miss at [0xc62610, line 0xc62600]
160567720000: system.ruby.cp_cntrl0.sequencer: Cache miss at [0x13a7710, line 0x13a7700]
160567722000: system.ruby.cp_cntrl0.sequencer: Cache miss at [0x13a7710, line 0x13a7700]
160567724000: system.ruby.cp_cntrl0.sequencer: Cache miss at [0x13a7718, line 0x13a7700]
160567726000: system.ruby.cp_cntrl0.sequencer: Cache miss at [0x13a7718, line 0x13a7700]
160567728000: system.ruby.cp_cntrl0.sequencer: Cache miss at [0x13a7718, line 0x13a7700]
160567730000: system.ruby.cp_cntrl0.sequencer: Cache miss at [0x13a7720, line 0x13a7700]
160567732000: system.ruby.cp_cntrl0.sequencer: Cache miss at [0x13a7720, line 0x13a7700]
[...]
160569658000: system.ruby.cp_cntrl1.sequencer: Cache miss at [0x13a80b0, line 0x13a8080]
160569660000: system.ruby.cp_cntrl1.sequencer: Cache miss at [0xf94300, line 0xf94300]
160569660000: system.ruby.cp_cntrl0.sequencer: Cache miss at [0x10df798, line 0x10df780]
160569662000: system.ruby.cp_cntrl0.sequencer: Cache miss at [0x3fa8748, line 0x3fa8740]
160569662000: system.ruby.cp_cntrl1.sequencer: Cache miss at [0x13a80b0, line 0x13a8080]
160569664000: system.ruby.cp_cntrl1.sequencer: Cache miss at [0x13a80f0, line 0x13a80c0]
160569664000: system.ruby.cp_cntrl0.sequencer: Cache miss at [0x3fa8748, line 0x3fa8740]
160569666000: system.ruby.cp_cntrl0.sequencer: Cache miss at [0x3fa8740, line 0x3fa8740]
160569666000: system.ruby.cp_cntrl1.sequencer: Cache miss at [0x13a80f0, line 0x13a80c0]
160569668000: system.ruby.cp_cntrl1.sequencer: Cache miss at [0x13a80f0, line 0x13a80c0]
160569668000: system.ruby.cp_cntrl0.sequencer: Cache miss at [0x38a48, line 0x38a40]
160569670000: system.ruby.cp_cntrl0.sequencer: Cache miss at [0xfaa3f0, line 0xfaa3c0]
160569670000: system.ruby.cp_cntrl1.sequencer: Cache miss at [0x13a80f8, line 0x13a80c0]
160569672000: system.ruby.cp_cntrl1.sequencer: Cache miss at [0x13a80f8, line 0x13a80c0]
160569672000: system.ruby.cp_cntrl0.sequencer: Cache miss at [0xfaa3f0, line 0xfaa3c0]
160569674000: system.ruby.cp_cntrl0.sequencer: Cache miss at [0xfaa3f8, line 0xfaa3c0]
160569674000: system.ruby.cp_cntrl1.sequencer: Cache miss at [0x139cc68, line 0x139cc40]
160569676000: system.ruby.cp_cntrl0.sequencer: Cache miss at [0xf90c20, line 0xf90c00]
160569678000: system.ruby.cp_cntrl0.sequencer: Cache miss at [0xc62610, line 0xc62600]
160569680000: system.ruby.cp_cntrl0.sequencer: Cache miss at [0x13a7710, line 0x13a7700]
160569682000: system.ruby.cp_cntrl0.sequencer: Cache miss at [0x13a7710, line 0x13a7700]
160569684000: system.ruby.cp_cntrl0.sequencer: Cache miss at [0x13a7718, line 0x13a7700]
160569686000: system.ruby.cp_cntrl0.sequencer: Cache miss at [0x13a7718, line 0x13a7700]
160569688000: system.ruby.cp_cntrl0.sequencer: Cache miss at [0x13a7718, line 0x13a7700]
160569690000: system.ruby.cp_cntrl0.sequencer: Cache miss at [0x13a7720, line 0x13a7700]
160569692000: system.ruby.cp_cntrl0.sequencer: Cache miss at [0x13a7720, line 0x13a7700]
160569694000: system.ruby.cp_cntrl0.sequencer: Cache miss at [0x13a7720, line 0x13a7700]
160569694000: system.ruby.cp_cntrl1.sequencer: Cache miss at [0x3fa9870, line 0x3fa9840]
160569696000: system.ruby.cp_cntrl1.sequencer: Cache miss at [0x3fa9870, line 0x3fa9840]
160569696000: system.ruby.cp_cntrl0.sequencer: Cache miss at [0x38a48, line 0x38a40]
160569698000: system.ruby.cp_cntrl0.sequencer: Cache miss at [0x3fa8740, line 0x3fa8740]
160569698000: system.ruby.cp_cntrl1.sequencer: Cache miss at [0x139cc60, line 0x139cc40]
160569700000: system.ruby.cp_cntrl1.sequencer: Cache miss at [0x3fa9870, line 0x3fa9840]
160569700000: system.ruby.cp_cntrl0.sequencer: Cache miss at [0x10df798, line 0x10df780]
160569702000: system.ruby.cp_cntrl0.sequencer: Cache miss at [0x3fa8748, line 0x3fa8740]
160569702000: system.ruby.cp_cntrl1.sequencer: Cache miss at [0x3fa9878, line 0x3fa9840]
160569704000: system.ruby.cp_cntrl1.sequencer: Cache miss at [0x3fa9878, line 0x3fa9840]
160569704000: system.ruby.cp_cntrl0.sequencer: Cache miss at [0x3fa8748, line 0x3fa8740]
160569706000: system.ruby.cp_cntrl0.sequencer: Cache miss at [0x3fa8740, line 0x3fa8740]
160569706000: system.ruby.cp_cntrl1.sequencer: Cache miss at [0x139cc58, line 0x139cc40]
160569708000: system.ruby.cp_cntrl1.sequencer: Cache miss at [0x3fa9878, line 0x3fa9840]
160569708000: system.ruby.cp_cntrl0.sequencer: Cache miss at [0x38a48, line 0x38a40]
160569710000: system.ruby.cp_cntrl0.sequencer: Cache miss at [0xfaa3f0, line 0xfaa3c0]
160569710000: system.ruby.cp_cntrl1.sequencer: Cache miss at [0x139cc50, line 0x139cc40]
160569712000: system.ruby.cp_cntrl1.sequencer: Cache miss at [0x3fa9878, line 0x3fa9840]
160569712000: system.ruby.cp_cntrl0.sequencer: Cache miss at [0xfaa3f0, line 0xfaa3c0]
160569714000: system.ruby.cp_cntrl0.sequencer: Cache miss at [0xfaa3f8, line 0xfaa3c0]
160569714000: system.ruby.cp_cntrl1.sequencer: Cache miss at [0x139cc48, line 0x139cc40]
160569716000: system.ruby.cp_cntrl0.sequencer: Cache miss at [0xf90c20, line 0xf90c00]
160569718000: system.ruby.cp_cntrl0.sequencer: Cache miss at [0xc62610, line 0xc62600]
160569720000: system.ruby.cp_cntrl0.sequencer: Cache miss at [0x13a7710, line 0x13a7700]
160569722000: system.ruby.cp_cntrl0.sequencer: Cache miss at [0x13a7710, line 0x13a7700]
160569724000: system.ruby.cp_cntrl0.sequencer: Cache miss at [0x13a7718, line 0x13a7700]
160569726000: system.ruby.cp_cntrl0.sequencer: Cache miss at [0x13a7718, line 0x13a7700]
160569728000: system.ruby.cp_cntrl0.sequencer: Cache miss at [0x13a7718, line 0x13a7700]
160569730000: system.ruby.cp_cntrl0.sequencer: Cache miss at [0x13a7720, line 0x13a7700]
160569732000: system.ruby.cp_cntrl0.sequencer: Cache miss at [0x13a7720, line 0x13a7700]
160569734000: system.ruby.cp_cntrl0.sequencer: Cache miss at [0x13a7720, line 0x13a7700]
160569734000: system.ruby.cp_cntrl1.sequencer: Cache miss at [0x3fa9880, line 0x3fa9880]
160569736000: system.ruby.cp_cntrl1.sequencer: Cache miss at [0x139cc40, line 0x139cc40]
160569736000: system.ruby.cp_cntrl0.sequencer: Cache miss at [0x38a48, line 0x38a40]
160569738000: system.ruby.cp_cntrl0.sequencer: Cache miss at [0x3fa8740, line 0x3fa8740]
160569738000: system.ruby.cp_cntrl1.sequencer: Cache miss at [0x3fa9880, line 0x3fa9880]
160569740000: system.ruby.cp_cntrl1.sequencer: Cache miss at [0x3fa9880, line 0x3fa9880]
160569740000: system.ruby.cp_cntrl0.sequencer: Cache miss at [0x10df798, line 0x10df780]
160569742000: system.ruby.cp_cntrl0.sequencer: Cache miss at [0x3fa8748, line 0x3fa8740]
160569742000: system.ruby.cp_cntrl1.sequencer: Cache miss at [0x3fa9888, line 0x3fa9880]
160569744000: system.ruby.cp_cntrl1.sequencer: Cache miss at [0x139b728, line 0x139b700]
160569744000: system.ruby.cp_cntrl0.sequencer: Cache miss at [0x3fa8748, line 0x3fa8740]
160569746000: system.ruby.cp_cntrl0.sequencer: Cache miss at [0x3fa8740, line 0x3fa8740]
160569746000: system.ruby.cp_cntrl1.sequencer: Cache miss at [0x3fa9888, line 0x3fa9880]
160569748000: system.ruby.cp_cntrl1.sequencer: Cache miss at [0x3fa9890, line 0x3fa9880]
160569748000: system.ruby.cp_cntrl0.sequencer: Cache miss at [0x38a48, line 0x38a40]
160569750000: system.ruby.cp_cntrl0.sequencer: Cache miss at [0xfaa3f0, line 0xfaa3c0]
160569750000: system.ruby.cp_cntrl1.sequencer: Cache miss at [0x139cc38, line 0x139cc00]
160569752000: system.ruby.cp_cntrl1.sequencer: Cache miss at [0x3fa9890, line 0x3fa9880]
160569752000: system.ruby.cp_cntrl0.sequencer: Cache miss at [0xfaa3f0, line 0xfaa3c0]
160569754000: system.ruby.cp_cntrl0.sequencer: Cache miss at [0xfaa3f8, line 0xfaa3c0]
160569754000: system.ruby.cp_cntrl1.sequencer: Cache miss at [0x3fa9890, line 0x3fa9880]
160569756000: system.ruby.cp_cntrl1.sequencer: Cache miss at [0x3fa9890, line 0x3fa9880]
160569756000: system.ruby.cp_cntrl0.sequencer: Cache miss at [0xf90c20, line 0xf90c00]
160569758000: system.ruby.cp_cntrl0.sequencer: Cache miss at [0xc62610, line 0xc62600]
160569758000: system.ruby.cp_cntrl1.sequencer: Cache miss at [0x3fa9898, line 0x3fa9880]
160569760000: system.ruby.cp_cntrl1.sequencer: Cache miss at [0x3fa9898, line 0x3fa9880]
160569760000: system.ruby.cp_cntrl0.sequencer: Cache miss at [0x13a7710, line 0x13a7700]
160569762000: system.ruby.cp_cntrl0.sequencer: Cache miss at [0x13a7710, line 0x13a7700]
160569762000: system.ruby.cp_cntrl1.sequencer: Cache miss at [0x3fa98a0, line 0x3fa9880]
160569764000: system.ruby.cp_cntrl0.sequencer: Cache miss at [0x13a7718, line 0x13a7700]
160569766000: system.ruby.cp_cntrl0.sequencer: Cache miss at [0x13a7718, line 0x13a7700]
160569768000: system.ruby.cp_cntrl0.sequencer: Cache miss at [0x13a7718, line 0x13a7700]
160569770000: system.ruby.cp_cntrl0.sequencer: Cache miss at [0x13a7720, line 0x13a7700]
160569772000: system.ruby.cp_cntrl0.sequencer: Cache miss at [0x13a7720, line 0x13a7700]
160569774000: system.ruby.cp_cntrl0.sequencer: Cache miss at [0x13a7720, line 0x13a7700]
160569776000: system.ruby.cp_cntrl0.sequencer: Cache miss at [0x38a48, line 0x38a40]
160569778000: system.ruby.cp_cntrl0.sequencer: Cache miss at [0x3fa8740, line 0x3fa8740]
160569780000: system.ruby.cp_cntrl0.sequencer: Cache miss at [0x10df798, line 0x10df780]
160569782000: system.ruby.cp_cntrl0.sequencer: Cache miss at [0x3fa8748, line 0x3fa8740]
160569784000: system.ruby.cp_cntrl0.sequencer: Cache miss at [0x3fa8748, line 0x3fa8740]
160569786000: system.ruby.cp_cntrl0.sequencer: Cache miss at [0x3fa8740, line 0x3fa8740]
160569788000: system.ruby.cp_cntrl0.sequencer: Cache miss at [0x38a48, line 0x38a40]
160569790000: system.ruby.cp_cntrl0.sequencer: Cache miss at [0xfaa3f0, line 0xfaa3c0]
160569792000: system.ruby.cp_cntrl0.sequencer: Cache miss at [0xfaa3f0, line 0xfaa3c0]
160569794000: system.ruby.cp_cntrl0.sequencer: Cache miss at [0xfaa3f8, line 0xfaa3c0]
160569796000: system.ruby.cp_cntrl0.sequencer: Cache miss at [0xf90c20, line 0xf90c00]
160569798000: system.ruby.cp_cntrl0.sequencer: Cache miss at [0xc62610, line 0xc62600]
160569800000: system.ruby.cp_cntrl0.sequencer: Cache miss at [0x13a7710, line 0x13a7700]
160569802000: system.ruby.cp_cntrl0.sequencer: Cache miss at [0x13a7710, line 0x13a7700]
160569804000: system.ruby.cp_cntrl0.sequencer: Cache miss at [0x13a7718, line 0x13a7700]
160569806000: system.ruby.cp_cntrl0.sequencer: Cache miss at [0x13a7718, line 0x13a7700]
160569808000: system.ruby.cp_cntrl0.sequencer: Cache miss at [0x13a7718, line 0x13a7700]
160569810000: system.ruby.cp_cntrl0.sequencer: Cache miss at [0x13a7720, line 0x13a7700]
160569812000: system.ruby.cp_cntrl0.sequencer: Cache miss at [0x13a7720, line 0x13a7700]
160569814000: system.ruby.cp_cntrl0.sequencer: Cache miss at [0x13a7720, line 0x13a7700]
160569816000: system.ruby.cp_cntrl0.sequencer: Cache miss at [0x38a48, line 0x38a40]
160569818000: system.ruby.cp_cntrl0.sequencer: Cache miss at [0x3fa8740, line 0x3fa8740]
160569820000: system.ruby.cp_cntrl0.sequencer: Cache miss at [0x10df798, line 0x10df780]
160569822000: system.ruby.cp_cntrl0.sequencer: Cache miss at [0x3fa8748, line 0x3fa8740]
160569824000: system.ruby.cp_cntrl0.sequencer: Cache miss at [0x3fa8748, line 0x3fa8740]
160569826000: system.ruby.cp_cntrl0.sequencer: Cache miss at [0x3fa8740, line 0x3fa8740]
160569828000: system.ruby.cp_cntrl0.sequencer: Cache miss at [0x38a48, line 0x38a40]
160569830000: system.ruby.cp_cntrl0.sequencer: Cache miss at [0xfaa3f0, line 0xfaa3c0]
160569832000: system.ruby.cp_cntrl0.sequencer: Cache miss at [0xfaa3f0, line 0xfaa3c0]
160569834000: system.ruby.cp_cntrl0.sequencer: Cache miss at [0xfaa3f8, line 0xfaa3c0]
160569836000: system.ruby.cp_cntrl0.sequencer: Cache miss at [0xf90c20, line 0xf90c00]
160569838000: system.ruby.cp_cntrl0.sequencer: Cache miss at [0xc62610, line 0xc62600]
160569840000: system.ruby.cp_cntrl0.sequencer: Cache miss at [0x13a7710, line 0x13a7700]
160569842000: system.ruby.cp_cntrl0.sequencer: Cache miss at [0x13a7710, line 0x13a7700]
160569844000: system.ruby.cp_cntrl0.sequencer: Cache miss at [0x13a7718, line 0x13a7700]
160569846000: system.ruby.cp_cntrl0.sequencer: Cache miss at [0x13a7718, line 0x13a7700]
160569848000: system.ruby.cp_cntrl0.sequencer: Cache miss at [0x13a7718, line 0x13a7700]
160569850000: system.ruby.cp_cntrl0.sequencer: Cache miss at [0x13a7720, line 0x13a7700]
160569852000: system.ruby.cp_cntrl0.sequencer: Cache miss at [0x13a7720, line 0x13a7700]
160569854000: system.ruby.cp_cntrl0.sequencer: Cache miss at [0x13a7720, line 0x13a7700]
160569856000: system.ruby.cp_cntrl0.sequencer: Cache miss at [0x38a48, line 0x38a40]
160569858000: system.ruby.cp_cntrl0.sequencer: Cache miss at [0x3fa8740, line 0x3fa8740]
160569860000: system.ruby.cp_cntrl0.sequencer: Cache miss at [0x10df798, line 0x10df780]
160569862000: system.ruby.cp_cntrl0.sequencer: Cache miss at [0x3fa8748, line 0x3fa8740]
160569864000: system.ruby.cp_cntrl0.sequencer: Cache miss at [0x3fa8748, line 0x3fa8740]
160569866000: system.ruby.cp_cntrl0.sequencer: Cache miss at [0x3fa8740, line 0x3fa8740]
160569868000: system.ruby.cp_cntrl0.sequencer: Cache miss at [0x38a48, line 0x38a40]
160569870000: system.ruby.cp_cntrl0.sequencer: Cache miss at [0xfaa3f0, line 0xfaa3c0]
160569872000: system.ruby.cp_cntrl0.sequencer: Cache miss at [0xfaa3f0, line 0xfaa3c0]
160569874000: system.ruby.cp_cntrl0.sequencer: Cache miss at [0xfaa3f8, line 0xfaa3c0]
160569876000: system.ruby.cp_cntrl0.sequencer: Cache miss at [0xf90c20, line 0xf90c00]
160569878000: system.ruby.cp_cntrl0.sequencer: Cache miss at [0xc62610, line 0xc62600]
160569880000: system.ruby.cp_cntrl0.sequencer: Cache miss at [0x13a7710, line 0x13a7700]
160569882000: system.ruby.cp_cntrl0.sequencer: Cache miss at [0x13a7710, line 0x13a7700]
160569884000: system.ruby.cp_cntrl0.sequencer: Cache miss at [0x13a7718, line 0x13a7700]
160569886000: system.ruby.cp_cntrl0.sequencer: Cache miss at [0x13a7718, line 0x13a7700]
160569888000: system.ruby.cp_cntrl0.sequencer: Cache miss at [0x13a7718, line 0x13a7700]
160569890000: system.ruby.cp_cntrl0.sequencer: Cache miss at [0x13a7720, line 0x13a7700]
160569892000: system.ruby.cp_cntrl0.sequencer: Cache miss at [0x13a7720, line 0x13a7700]
160569894000: system.ruby.cp_cntrl0.sequencer: Cache miss at [0x13a7720, line 0x13a7700]
160569896000: system.ruby.cp_cntrl0.sequencer: Cache miss at [0x38a48, line 0x38a40]
160569898000: system.ruby.cp_cntrl0.sequencer: Cache miss at [0x3fa8740, line 0x3fa8740]
160569900000: system.ruby.cp_cntrl0.sequencer: Cache miss at [0x10df798, line 0x10df780]
160569902000: system.ruby.cp_cntrl0.sequencer: Cache miss at [0x3fa8748, line 0x3fa8740]
160569904000: system.ruby.cp_cntrl0.sequencer: Cache miss at [0x3fa8748, line 0x3fa8740]
160569906000: system.ruby.cp_cntrl0.sequencer: Cache miss at [0x3fa8740, line 0x3fa8740]
160569908000: system.ruby.cp_cntrl0.sequencer: Cache miss at [0x38a48, line 0x38a40]
160569910000: system.ruby.cp_cntrl0.sequencer: Cache miss at [0xfaa3f0, line 0xfaa3c0]
160569912000: system.ruby.cp_cntrl0.sequencer: Cache miss at [0xfaa3f0, line 0xfaa3c0]
160569914000: system.ruby.cp_cntrl0.sequencer: Cache miss at [0xfaa3f8, line 0xfaa3c0]
160569916000: system.ruby.cp_cntrl0.sequencer: Cache miss at [0xf90c20, line 0xf90c00]
160569918000: system.ruby.cp_cntrl0.sequencer: Cache miss at [0xc62610, line 0xc62600]
160569920000: system.ruby.cp_cntrl0.sequencer: Cache miss at [0x13a7710, line 0x13a7700]
160569922000: system.ruby.cp_cntrl0.sequencer: Cache miss at [0x13a7710, line 0x13a7700]
160569924000: system.ruby.cp_cntrl0.sequencer: Cache miss at [0x13a7718, line 0x13a7700]
160569926000: system.ruby.cp_cntrl0.sequencer: Cache miss at [0x13a7718, line 0x13a7700]
160569928000: system.ruby.cp_cntrl0.sequencer: Cache miss at [0x13a7718, line 0x13a7700]
160569930000: system.ruby.cp_cntrl0.sequencer: Cache miss at [0x13a7720, line 0x13a7700]
160569932000: system.ruby.cp_cntrl0.sequencer: Cache miss at [0x13a7720, line 0x13a7700]
160569934000: system.ruby.cp_cntrl0.sequencer: Cache miss at [0x13a7720, line 0x13a7700]
160569936000: system.ruby.cp_cntrl0.sequencer: Cache miss at [0x38a48, line 0x38a40]
160569938000: system.ruby.cp_cntrl0.sequencer: Cache miss at [0x3fa8740, line 0x3fa8740]
160569940000: system.ruby.cp_cntrl0.sequencer: Cache miss at [0x10df798, line 0x10df780]
160569942000: system.ruby.cp_cntrl0.sequencer: Cache miss at [0x3fa8748, line 0x3fa8740]
160569944000: system.ruby.cp_cntrl0.sequencer: Cache miss at [0x3fa8748, line 0x3fa8740]
160569946000: system.ruby.cp_cntrl0.sequencer: Cache miss at [0x3fa8740, line 0x3fa8740]
160569948000: system.ruby.cp_cntrl0.sequencer: Cache miss at [0x38a48, line 0x38a40]
160569950000: system.ruby.cp_cntrl0.sequencer: Cache miss at [0xfaa3f0, line 0xfaa3c0]
160569952000: system.ruby.cp_cntrl0.sequencer: Cache miss at [0xfaa3f0, line 0xfaa3c0]
160569954000: system.ruby.cp_cntrl0.sequencer: Cache miss at [0xfaa3f8, line 0xfaa3c0]
160569956000: system.ruby.cp_cntrl0.sequencer: Cache miss at [0xf90c20, line 0xf90c00]
160569958000: system.ruby.cp_cntrl0.sequencer: Cache miss at [0xc62610, line 0xc62600]
160569960000: system.ruby.cp_cntrl0.sequencer: Cache miss at [0x13a7710, line 0x13a7700]
160569962000: system.ruby.cp_cntrl0.sequencer: Cache miss at [0x13a7710, line 0x13a7700]
160569964000: system.ruby.cp_cntrl0.sequencer: Cache miss at [0x13a7718, line 0x13a7700]
160569966000: system.ruby.cp_cntrl0.sequencer: Cache miss at [0x13a7718, line 0x13a7700]
160569968000: system.ruby.cp_cntrl0.sequencer: Cache miss at [0x13a7718, line 0x13a7700]
160569970000: system.ruby.cp_cntrl0.sequencer: Cache miss at [0x13a7720, line 0x13a7700]
160569972000: system.ruby.cp_cntrl0.sequencer: Cache miss at [0x13a7720, line 0x13a7700]
160569974000: system.ruby.cp_cntrl0.sequencer: Cache miss at [0x13a7720, line 0x13a7700]
160569976000: system.ruby.cp_cntrl0.sequencer: Cache miss at [0x38a48, line 0x38a40]
160569978000: system.ruby.cp_cntrl0.sequencer: Cache miss at [0x3fa8740, line 0x3fa8740]
160569980000: system.ruby.cp_cntrl0.sequencer: Cache miss at [0x10df798, line 0x10df780]
160569982000: system.ruby.cp_cntrl0.sequencer: Cache miss at [0x3fa8748, line 0x3fa8740]
160569984000: system.ruby.cp_cntrl0.sequencer: Cache miss at [0x3fa8748, line 0x3fa8740]
160569986000: system.ruby.cp_cntrl0.sequencer: Cache miss at [0x3fa8740, line 0x3fa8740]
160569988000: system.ruby.cp_cntrl0.sequencer: Cache miss at [0x38a48, line 0x38a40]
160569990000: system.ruby.cp_cntrl0.sequencer: Cache miss at [0xfaa3f0, line 0xfaa3c0]
160569992000: system.ruby.cp_cntrl0.sequencer: Cache miss at [0xfaa3f0, line 0xfaa3c0]
160569993720: system.ruby.tcp_cntrl0.coalescer: ReadCallBack GPU Cache miss at <extra arg>%x
160569993720: system.ruby.tcp_cntrl0.coalescer: GPU Cache miss at [0x1386280, line 0x1386280]
160569994000: system.ruby.cp_cntrl0.sequencer: Cache miss at [0xfaa3f8, line 0xfaa3c0]
160569996000: system.ruby.cp_cntrl0.sequencer: Cache miss at [0xf90c20, line 0xf90c00]
160569998000: system.ruby.cp_cntrl0.sequencer: Cache miss at [0xc62610, line 0xc62600]
160570000000: system.ruby.cp_cntrl0.sequencer: Cache miss at [0x13a7710, line 0x13a7700]
160570002000: system.ruby.cp_cntrl0.sequencer: Cache miss at [0x13a7710, line 0x13a7700]
160570004000: system.ruby.cp_cntrl0.sequencer: Cache miss at [0x13a7718, line 0x13a7700]
160570006000: system.ruby.cp_cntrl0.sequencer: Cache miss at [0x13a7718, line 0x13a7700]
160570008000: system.ruby.cp_cntrl0.sequencer: Cache miss at [0x13a7718, line 0x13a7700]
160570010000: system.ruby.cp_cntrl0.sequencer: Cache miss at [0x13a7720, line 0x13a7700]
160570012000: system.ruby.cp_cntrl0.sequencer: Cache miss at [0x13a7720, line 0x13a7700]
160570014000: system.ruby.cp_cntrl0.sequencer: Cache miss at [0x13a7720, line 0x13a7700]
160570016000: system.ruby.cp_cntrl0.sequencer: Cache miss at [0x38a48, line 0x38a40]
160570018000: system.ruby.cp_cntrl0.sequencer: Cache miss at [0x3fa8740, line 0x3fa8740]
160570020000: system.ruby.cp_cntrl0.sequencer: Cache miss at [0x10df798, line 0x10df780]
160570022000: system.ruby.cp_cntrl0.sequencer: Cache miss at [0x3fa8748, line 0x3fa8740]
160570024000: system.ruby.cp_cntrl0.sequencer: Cache miss at [0x3fa8748, line 0x3fa8740]
160570026000: system.ruby.cp_cntrl0.sequencer: Cache miss at [0x3fa8740, line 0x3fa8740]
160570028000: system.ruby.cp_cntrl0.sequencer: Cache miss at [0x38a48, line 0x38a40]
160570030000: system.ruby.cp_cntrl0.sequencer: Cache miss at [0xfaa3f0, line 0xfaa3c0]
160570032000: system.ruby.cp_cntrl0.sequencer: Cache miss at [0xfaa3f0, line 0xfaa3c0]
160570034000: system.ruby.cp_cntrl0.sequencer: Cache miss at [0xfaa3f8, line 0xfaa3c0]
Dummy value = 0
Ticks: 167656786500
Exiting because  exiting with last active thread context
