Global frequency set at 1000000000000 ticks per second
Forcing maxCoalescedReqs to 32 (TLB assoc.) 
Forcing maxCoalescedReqs to 32 (TLB assoc.) 
Forcing maxCoalescedReqs to 32 (TLB assoc.) 
Forcing maxCoalescedReqs to 32 (TLB assoc.) 
Forcing maxCoalescedReqs to 32 (TLB assoc.) 
Forcing maxCoalescedReqs to 32 (TLB assoc.) 
Forcing maxCoalescedReqs to 32 (TLB assoc.) 
Forcing maxCoalescedReqs to 32 (TLB assoc.) 
gem5 Simulator System.  https://www.gem5.org
gem5 is copyrighted software; use the --copyright option for details.

gem5 version DEVELOP-FOR-23.1
gem5 compiled Nov 19 2023 12:06:45
gem5 started Nov 20 2023 17:56:19
gem5 executing on 514e63c3563f, pid 1
command line: build/VEGA_X86/gem5.opt --debug-flag=RubyHitMiss,ProtocolTrace --debug-start=160564781161 --debug-end=160568929230 configs/example/apu_se.py -n 3 --dgpu --gfx-version=gfx900 --num-compute-units=4 --cu-per-sa=4 --num-gpu-complex=1 --reg-alloc-policy=dynamic --num-tccs=8 --num-dirs=64 --mem-size=16GB --mem-type=HBM_2000_4H_1x64 --vreg-file-size=16384 --sreg-file-size=800 --tcc-size=256kB --gpu-clock=1801MHz --ruby-clock=1000MHz --vrf_lm_bus_latency=6 --mem-req-latency=69 --mem-resp-latency=69 --mandatory_queue_latency=1 --max-cu-tokens=160 --max-coalesces-per-cycle=10 --sqc-size=16kB --tcp-size=512B --scalar-mem-req-latency=28 --TCP_latency=4 --tcp-assoc=4 --tcp-num-banks=16 --TCC_latency=121 --tcc-assoc=16 --tcc-tag-access-latency=1 --tcc-data-access-latency=1 --tcp-rp=LRURP --WB_L2 --tcc-rp=LRURP -c gpu_test_fewer_wait/lru_test_4

info: Standard input is not a terminal, disabling listeners.
Num SQC =  1 Num scalar caches =  1 Num CU =  4
   160564782000   0        Seq                Done       >       [0xfaa3f0, line 0xfaa3c0] 1 cycles
160564782000: system.ruby.cp_cntrl0.sequencer: Cache miss at [0xfaa3f0, line 0xfaa3c0]
   160564782000   0   CorePair       Ifetch0_L1hit      S>S      [0xfaa3c0, line 0xfaa3c0] 
   160564782500   0        Seq               Begin       >       [0xfaa3f0, line 0xfaa3c0] IFETCH
   160564784000   0        Seq                Done       >       [0xfaa3f0, line 0xfaa3c0] 1 cycles
160564784000: system.ruby.cp_cntrl0.sequencer: Cache miss at [0xfaa3f0, line 0xfaa3c0]
   160564784000   0   CorePair       Ifetch0_L1hit      S>S      [0xfaa3c0, line 0xfaa3c0] 
   160564784500   0        Seq               Begin       >       [0xfaa3f8, line 0xfaa3c0] IFETCH
   160564786000   0        Seq                Done       >       [0xfaa3f8, line 0xfaa3c0] 1 cycles
160564786000: system.ruby.cp_cntrl0.sequencer: Cache miss at [0xfaa3f8, line 0xfaa3c0]
   160564786000   0   CorePair       Ifetch0_L1hit      S>S      [0xfaa3c0, line 0xfaa3c0] 
   160564786500   0        Seq               Begin       >       [0xf90c20, line 0xf90c00] IFETCH
   160564788000   0        Seq                Done       >       [0xf90c20, line 0xf90c00] 1 cycles
160564788000: system.ruby.cp_cntrl0.sequencer: Cache miss at [0xf90c20, line 0xf90c00]
   160564788000   0   CorePair       Ifetch0_L1hit      S>S      [0xf90c00, line 0xf90c00] 
   160564788500   0        Seq               Begin       >       [0xc62610, line 0xc62600] LD
   160564790000   0        Seq                Done       >       [0xc62610, line 0xc62600] 1 cycles
160564790000: system.ruby.cp_cntrl0.sequencer: Cache miss at [0xc62610, line 0xc62600]
   160564790000   0   CorePair       C0_Load_L1hit      S>S      [0xc62600, line 0xc62600] 
   160564790500   0        Seq               Begin       >       [0x13a7710, line 0x13a7700] IFETCH
   160564792000   0        Seq                Done       >       [0x13a7710, line 0x13a7700] 1 cycles
160564792000: system.ruby.cp_cntrl0.sequencer: Cache miss at [0x13a7710, line 0x13a7700]
   160564792000   0   CorePair       Ifetch0_L1hit      S>S      [0x13a7700, line 0x13a7700] 
   160564792500   0        Seq               Begin       >       [0x13a7710, line 0x13a7700] IFETCH
   160564794000   0        Seq                Done       >       [0x13a7710, line 0x13a7700] 1 cycles
160564794000: system.ruby.cp_cntrl0.sequencer: Cache miss at [0x13a7710, line 0x13a7700]
   160564794000   0   CorePair       Ifetch0_L1hit      S>S      [0x13a7700, line 0x13a7700] 
   160564794500   0        Seq               Begin       >       [0x13a7718, line 0x13a7700] IFETCH
   160564796000   0        Seq                Done       >       [0x13a7718, line 0x13a7700] 1 cycles
160564796000: system.ruby.cp_cntrl0.sequencer: Cache miss at [0x13a7718, line 0x13a7700]
   160564796000   0   CorePair       Ifetch0_L1hit      S>S      [0x13a7700, line 0x13a7700] 
   160564796500   0        Seq               Begin       >       [0x13a7718, line 0x13a7700] IFETCH
   160564798000   0        Seq                Done       >       [0x13a7718, line 0x13a7700] 1 cycles
160564798000: system.ruby.cp_cntrl0.sequencer: Cache miss at [0x13a7718, line 0x13a7700]
   160564798000   0   CorePair       Ifetch0_L1hit      S>S      [0x13a7700, line 0x13a7700] 
   160564798500   0        Seq               Begin       >       [0x13a7718, line 0x13a7700] IFETCH
   160564800000   0        Seq                Done       >       [0x13a7718, line 0x13a7700] 1 cycles
160564800000: system.ruby.cp_cntrl0.sequencer: Cache miss at [0x13a7718, line 0x13a7700]
   160564800000   0   CorePair       Ifetch0_L1hit      S>S      [0x13a7700, line 0x13a7700] 
   160564800500   0        Seq               Begin       >       [0x13a7720, line 0x13a7700] IFETCH
   160564802000   0        Seq                Done       >       [0x13a7720, line 0x13a7700] 1 cycles
160564802000: system.ruby.cp_cntrl0.sequencer: Cache miss at [0x13a7720, line 0x13a7700]
   160564802000   0   CorePair       Ifetch0_L1hit      S>S      [0x13a7700, line 0x13a7700] 
   160564802500   0        Seq               Begin       >       [0x13a7720, line 0x13a7700] IFETCH
   160564803000   0   CorePair          PrbShrData     M0>O      [0x10d5bc0, line 0x10d5bc0] 
   160564804000   0        Seq                Done       >       [0x13a7720, line 0x13a7700] 1 cycles
160564804000: system.ruby.cp_cntrl0.sequencer: Cache miss at [0x13a7720, line 0x13a7700]
   160564804000   0   CorePair       Ifetch0_L1hit      S>S      [0x13a7700, line 0x13a7700] 
   160564804500   0        Seq               Begin       >       [0x13a7720, line 0x13a7700] IFETCH
   160564806000   0        Seq                Done       >       [0x13a7720, line 0x13a7700] 1 cycles
160564806000: system.ruby.cp_cntrl0.sequencer: Cache miss at [0x13a7720, line 0x13a7700]
   160564806000   0   CorePair       Ifetch0_L1hit      S>S      [0x13a7700, line 0x13a7700] 
   160564806500   0        Seq               Begin       >       [0x38a58, line 0x38a40] LD
   160564808000   0        Seq                Done       >       [0x38a58, line 0x38a40] 1 cycles
160564808000: system.ruby.cp_cntrl0.sequencer: Cache miss at [0x38a58, line 0x38a40]
   160564808000   0   CorePair       C0_Load_L1hit     M0>M0     [0x38a40, line 0x38a40] 
   160564808500   0        Seq               Begin       >       [0x3fa8740, line 0x3fa8740] IFETCH
   160564810000   0        Seq                Done       >       [0x3fa8740, line 0x3fa8740] 1 cycles
160564810000: system.ruby.cp_cntrl0.sequencer: Cache miss at [0x3fa8740, line 0x3fa8740]
   160564810000   0   CorePair       Ifetch0_L1hit      S>S      [0x3fa8740, line 0x3fa8740] 
   160564810500   0        Seq               Begin       >       [0x10df948, line 0x10df940] LD
   160564812000   0        Seq                Done       >       [0x10df948, line 0x10df940] 1 cycles
160564812000: system.ruby.cp_cntrl0.sequencer: Cache miss at [0x10df948, line 0x10df940]
   160564812000   0   CorePair       C0_Load_L1hit     M0>M0     [0x10df940, line 0x10df940] 
   160564812500   0        Seq               Begin       >       [0x3fa8748, line 0x3fa8740] IFETCH
   160564814000   0        Seq                Done       >       [0x3fa8748, line 0x3fa8740] 1 cycles
160564814000: system.ruby.cp_cntrl0.sequencer: Cache miss at [0x3fa8748, line 0x3fa8740]
   160564814000   0   CorePair       Ifetch0_L1hit      S>S      [0x3fa8740, line 0x3fa8740] 
   160564814500   0        Seq               Begin       >       [0x3fa8748, line 0x3fa8740] IFETCH
   160564816000   0        Seq                Done       >       [0x3fa8748, line 0x3fa8740] 1 cycles
160564816000: system.ruby.cp_cntrl0.sequencer: Cache miss at [0x3fa8748, line 0x3fa8740]
   160564816000   0   CorePair       Ifetch0_L1hit      S>S      [0x3fa8740, line 0x3fa8740] 
   160564816500   0        Seq               Begin       >       [0x3fa8740, line 0x3fa8740] IFETCH
   160564818000   0        Seq                Done       >       [0x3fa8740, line 0x3fa8740] 1 cycles
160564818000: system.ruby.cp_cntrl0.sequencer: Cache miss at [0x3fa8740, line 0x3fa8740]
   160564818000   0   CorePair       Ifetch0_L1hit      S>S      [0x3fa8740, line 0x3fa8740] 
   160564818500   0        Seq               Begin       >       [0x38a58, line 0x38a40] ST
   160564820000   0        Seq                Done       >       [0x38a58, line 0x38a40] 1 cycles
160564820000: system.ruby.cp_cntrl0.sequencer: Cache miss at [0x38a58, line 0x38a40]
   160564820000   0   CorePair      C0_Store_L1hit     M0>M0     [0x38a40, line 0x38a40] 
   160564820500   0        Seq               Begin       >       [0xfaa3f0, line 0xfaa3c0] IFETCH
   160564822000   0        Seq                Done       >       [0xfaa3f0, line 0xfaa3c0] 1 cycles
160564822000: system.ruby.cp_cntrl0.sequencer: Cache miss at [0xfaa3f0, line 0xfaa3c0]
   160564822000   0   CorePair       Ifetch0_L1hit      S>S      [0xfaa3c0, line 0xfaa3c0] 
   160564822500   0        Seq               Begin       >       [0xfaa3f0, line 0xfaa3c0] IFETCH
   160564822785  12        Seq               Begin       >       [0x401d000, line 0x401d000] IFETCH
   160564823340   0        SQC               Fetch      I>IV     [0x401d000, line 0x401d000] 
   160564824000   0        Seq                Done       >       [0xfaa3f0, line 0xfaa3c0] 1 cycles
160564824000: system.ruby.cp_cntrl0.sequencer: Cache miss at [0xfaa3f0, line 0xfaa3c0]
   160564824000   0   CorePair       Ifetch0_L1hit      S>S      [0xfaa3c0, line 0xfaa3c0] 
   160564824500   0        Seq               Begin       >       [0xfaa3f8, line 0xfaa3c0] IFETCH
   160564826000  63  Directory             MemData   B_PM>B_Pm   [0x10d5bc0, line 0x10d5bc0] 
   160564826000   0        Seq                Done       >       [0xfaa3f8, line 0xfaa3c0] 1 cycles
160564826000: system.ruby.cp_cntrl0.sequencer: Cache miss at [0xfaa3f8, line 0xfaa3c0]
   160564826000   0   CorePair       Ifetch0_L1hit      S>S      [0xfaa3c0, line 0xfaa3c0] 
   160564826500   0        Seq               Begin       >       [0xf90c20, line 0xf90c00] IFETCH
   160564828000   0        Seq                Done       >       [0xf90c20, line 0xf90c00] 1 cycles
160564828000: system.ruby.cp_cntrl0.sequencer: Cache miss at [0xf90c20, line 0xf90c00]
   160564828000   0   CorePair       Ifetch0_L1hit      S>S      [0xf90c00, line 0xf90c00] 
   160564828500   0        Seq               Begin       >       [0xc62610, line 0xc62600] LD
   160564830000   0        Seq                Done       >       [0xc62610, line 0xc62600] 1 cycles
160564830000: system.ruby.cp_cntrl0.sequencer: Cache miss at [0xc62610, line 0xc62600]
   160564830000   0   CorePair       C0_Load_L1hit      S>S      [0xc62600, line 0xc62600] 
   160564830500   0        Seq               Begin       >       [0x13a7710, line 0x13a7700] IFETCH
   160564832000   0        Seq                Done       >       [0x13a7710, line 0x13a7700] 1 cycles
160564832000: system.ruby.cp_cntrl0.sequencer: Cache miss at [0x13a7710, line 0x13a7700]
   160564832000   0   CorePair       Ifetch0_L1hit      S>S      [0x13a7700, line 0x13a7700] 
   160564832500   0        Seq               Begin       >       [0x13a7710, line 0x13a7700] IFETCH
   160564834000   0        Seq                Done       >       [0x13a7710, line 0x13a7700] 1 cycles
160564834000: system.ruby.cp_cntrl0.sequencer: Cache miss at [0x13a7710, line 0x13a7700]
   160564834000   0   CorePair       Ifetch0_L1hit      S>S      [0x13a7700, line 0x13a7700] 
   160564834500   0        Seq               Begin       >       [0x13a7718, line 0x13a7700] IFETCH
   160564836000   0        Seq                Done       >       [0x13a7718, line 0x13a7700] 1 cycles
160564836000: system.ruby.cp_cntrl0.sequencer: Cache miss at [0x13a7718, line 0x13a7700]
   160564836000   0   CorePair       Ifetch0_L1hit      S>S      [0x13a7700, line 0x13a7700] 
   160564836500   0        Seq               Begin       >       [0x13a7718, line 0x13a7700] IFETCH
   160564838000   0        Seq                Done       >       [0x13a7718, line 0x13a7700] 1 cycles
160564838000: system.ruby.cp_cntrl0.sequencer: Cache miss at [0x13a7718, line 0x13a7700]
   160564838000   0   CorePair       Ifetch0_L1hit      S>S      [0x13a7700, line 0x13a7700] 
   160564838500   0        Seq               Begin       >       [0x13a7718, line 0x13a7700] IFETCH
   160564840000   0        Seq                Done       >       [0x13a7718, line 0x13a7700] 1 cycles
160564840000: system.ruby.cp_cntrl0.sequencer: Cache miss at [0x13a7718, line 0x13a7700]
   160564840000   0   CorePair       Ifetch0_L1hit      S>S      [0x13a7700, line 0x13a7700] 
   160564840500   0        Seq               Begin       >       [0x13a7720, line 0x13a7700] IFETCH
   160564842000   0        Seq                Done       >       [0x13a7720, line 0x13a7700] 1 cycles
160564842000: system.ruby.cp_cntrl0.sequencer: Cache miss at [0x13a7720, line 0x13a7700]
   160564842000   0   CorePair       Ifetch0_L1hit      S>S      [0x13a7700, line 0x13a7700] 
   160564842500   0        Seq               Begin       >       [0x13a7720, line 0x13a7700] IFETCH
   160564844000   0        Seq                Done       >       [0x13a7720, line 0x13a7700] 1 cycles
160564844000: system.ruby.cp_cntrl0.sequencer: Cache miss at [0x13a7720, line 0x13a7700]
   160564844000   0   CorePair       Ifetch0_L1hit      S>S      [0x13a7700, line 0x13a7700] 
   160564844500   0        Seq               Begin       >       [0x13a7720, line 0x13a7700] IFETCH
   160564846000   0        Seq                Done       >       [0x13a7720, line 0x13a7700] 1 cycles
160564846000: system.ruby.cp_cntrl0.sequencer: Cache miss at [0x13a7720, line 0x13a7700]
   160564846000   0   CorePair       Ifetch0_L1hit      S>S      [0x13a7700, line 0x13a7700] 
   160564846500   0        Seq               Begin       >       [0x38a58, line 0x38a40] LD
   160564848000   0        Seq                Done       >       [0x38a58, line 0x38a40] 1 cycles
160564848000: system.ruby.cp_cntrl0.sequencer: Cache miss at [0x38a58, line 0x38a40]
   160564848000   0   CorePair       C0_Load_L1hit     M0>M0     [0x38a40, line 0x38a40] 
   160564848500   0        Seq               Begin       >       [0x3fa8740, line 0x3fa8740] IFETCH
   160564850000   0        Seq                Done       >       [0x3fa8740, line 0x3fa8740] 1 cycles
160564850000: system.ruby.cp_cntrl0.sequencer: Cache miss at [0x3fa8740, line 0x3fa8740]
   160564850000   0   CorePair       Ifetch0_L1hit      S>S      [0x3fa8740, line 0x3fa8740] 
   160564850500   0        Seq               Begin       >       [0x10df948, line 0x10df940] LD
   160564852000   0        Seq                Done       >       [0x10df948, line 0x10df940] 1 cycles
160564852000: system.ruby.cp_cntrl0.sequencer: Cache miss at [0x10df948, line 0x10df940]
   160564852000   0   CorePair       C0_Load_L1hit     M0>M0     [0x10df940, line 0x10df940] 
   160564852500   0        Seq               Begin       >       [0x3fa8748, line 0x3fa8740] IFETCH
   160564854000   0        Seq                Done       >       [0x3fa8748, line 0x3fa8740] 1 cycles
160564854000: system.ruby.cp_cntrl0.sequencer: Cache miss at [0x3fa8748, line 0x3fa8740]
   160564854000   0   CorePair       Ifetch0_L1hit      S>S      [0x3fa8740, line 0x3fa8740] 
   160564854500   0        Seq               Begin       >       [0x3fa8748, line 0x3fa8740] IFETCH
   160564856000   0        Seq                Done       >       [0x3fa8748, line 0x3fa8740] 1 cycles
160564856000: system.ruby.cp_cntrl0.sequencer: Cache miss at [0x3fa8748, line 0x3fa8740]
   160564856000   0   CorePair       Ifetch0_L1hit      S>S      [0x3fa8740, line 0x3fa8740] 
   160564856500   0        Seq               Begin       >       [0x3fa8740, line 0x3fa8740] IFETCH
   160564858000   0        Seq                Done       >       [0x3fa8740, line 0x3fa8740] 1 cycles
160564858000: system.ruby.cp_cntrl0.sequencer: Cache miss at [0x3fa8740, line 0x3fa8740]
   160564858000   0   CorePair       Ifetch0_L1hit      S>S      [0x3fa8740, line 0x3fa8740] 
   160564858500   0        Seq               Begin       >       [0x38a58, line 0x38a40] ST
   160564860000   0        Seq                Done       >       [0x38a58, line 0x38a40] 1 cycles
160564860000: system.ruby.cp_cntrl0.sequencer: Cache miss at [0x38a58, line 0x38a40]
   160564860000   0   CorePair      C0_Store_L1hit     M0>M0     [0x38a40, line 0x38a40] 
   160564860500   0        Seq               Begin       >       [0xfaa3f0, line 0xfaa3c0] IFETCH
   160564862000   0        Seq                Done       >       [0xfaa3f0, line 0xfaa3c0] 1 cycles
160564862000: system.ruby.cp_cntrl0.sequencer: Cache miss at [0xfaa3f0, line 0xfaa3c0]
   160564862000   0   CorePair       Ifetch0_L1hit      S>S      [0xfaa3c0, line 0xfaa3c0] 
   160564862500   0        Seq               Begin       >       [0xfaa3f0, line 0xfaa3c0] IFETCH
   160564864000   0        Seq                Done       >       [0xfaa3f0, line 0xfaa3c0] 1 cycles
160564864000: system.ruby.cp_cntrl0.sequencer: Cache miss at [0xfaa3f0, line 0xfaa3c0]
   160564864000   0   CorePair       Ifetch0_L1hit      S>S      [0xfaa3c0, line 0xfaa3c0] 
   160564864500   0        Seq               Begin       >       [0xfaa3f8, line 0xfaa3c0] IFETCH
   160564866000   0        Seq                Done       >       [0xfaa3f8, line 0xfaa3c0] 1 cycles
160564866000: system.ruby.cp_cntrl0.sequencer: Cache miss at [0xfaa3f8, line 0xfaa3c0]
   160564866000   0   CorePair       Ifetch0_L1hit      S>S      [0xfaa3c0, line 0xfaa3c0] 
   160564866500   0        Seq               Begin       >       [0xf90c20, line 0xf90c00] IFETCH
   160564868000   0        Seq                Done       >       [0xf90c20, line 0xf90c00] 1 cycles
160564868000: system.ruby.cp_cntrl0.sequencer: Cache miss at [0xf90c20, line 0xf90c00]
   160564868000   0   CorePair       Ifetch0_L1hit      S>S      [0xf90c00, line 0xf90c00] 
   160564868500   0        Seq               Begin       >       [0xc62610, line 0xc62600] LD
   160564870000   0        Seq                Done       >       [0xc62610, line 0xc62600] 1 cycles
160564870000: system.ruby.cp_cntrl0.sequencer: Cache miss at [0xc62610, line 0xc62600]
   160564870000   0   CorePair       C0_Load_L1hit      S>S      [0xc62600, line 0xc62600] 
   160564870500   0        Seq               Begin       >       [0x13a7710, line 0x13a7700] IFETCH
   160564870515   0        TCC               RdBlk      W>WI     [0x401d000, line 0x401d000] 
   160564872000   0        Seq                Done       >       [0x13a7710, line 0x13a7700] 1 cycles
160564872000: system.ruby.cp_cntrl0.sequencer: Cache miss at [0x13a7710, line 0x13a7700]
   160564872000   0   CorePair       Ifetch0_L1hit      S>S      [0x13a7700, line 0x13a7700] 
   160564872500   0        Seq               Begin       >       [0x13a7710, line 0x13a7700] IFETCH
   160564874000   0        Seq                Done       >       [0x13a7710, line 0x13a7700] 1 cycles
160564874000: system.ruby.cp_cntrl0.sequencer: Cache miss at [0x13a7710, line 0x13a7700]
   160564874000   0   CorePair       Ifetch0_L1hit      S>S      [0x13a7700, line 0x13a7700] 
   160564874500   0        Seq               Begin       >       [0x13a7718, line 0x13a7700] IFETCH
   160564876000   0        Seq                Done       >       [0x13a7718, line 0x13a7700] 1 cycles
160564876000: system.ruby.cp_cntrl0.sequencer: Cache miss at [0x13a7718, line 0x13a7700]
   160564876000   0   CorePair       Ifetch0_L1hit      S>S      [0x13a7700, line 0x13a7700] 
   160564876500   0        Seq               Begin       >       [0x13a7718, line 0x13a7700] IFETCH
   160564878000   0        Seq                Done       >       [0x13a7718, line 0x13a7700] 1 cycles
160564878000: system.ruby.cp_cntrl0.sequencer: Cache miss at [0x13a7718, line 0x13a7700]
   160564878000   0   CorePair       Ifetch0_L1hit      S>S      [0x13a7700, line 0x13a7700] 
   160564878500   0        Seq               Begin       >       [0x13a7718, line 0x13a7700] IFETCH
   160564880000   0        Seq                Done       >       [0x13a7718, line 0x13a7700] 1 cycles
160564880000: system.ruby.cp_cntrl0.sequencer: Cache miss at [0x13a7718, line 0x13a7700]
   160564880000   0   CorePair       Ifetch0_L1hit      S>S      [0x13a7700, line 0x13a7700] 
   160564880500   0        Seq               Begin       >       [0x13a7720, line 0x13a7700] IFETCH
   160564882000   0        Seq                Done       >       [0x13a7720, line 0x13a7700] 1 cycles
160564882000: system.ruby.cp_cntrl0.sequencer: Cache miss at [0x13a7720, line 0x13a7700]
   160564882000   0   CorePair       Ifetch0_L1hit      S>S      [0x13a7700, line 0x13a7700] 
   160564882500   0        Seq               Begin       >       [0x13a7720, line 0x13a7700] IFETCH
   160564884000   0        Seq                Done       >       [0x13a7720, line 0x13a7700] 1 cycles
160564884000: system.ruby.cp_cntrl0.sequencer: Cache miss at [0x13a7720, line 0x13a7700]
   160564884000   0   CorePair       Ifetch0_L1hit      S>S      [0x13a7700, line 0x13a7700] 
   160564884500   0        Seq               Begin       >       [0x13a7720, line 0x13a7700] IFETCH
   160564886000   0        Seq                Done       >       [0x13a7720, line 0x13a7700] 1 cycles
160564886000: system.ruby.cp_cntrl0.sequencer: Cache miss at [0x13a7720, line 0x13a7700]
   160564886000   0   CorePair       Ifetch0_L1hit      S>S      [0x13a7700, line 0x13a7700] 
   160564886500   0        Seq               Begin       >       [0x38a58, line 0x38a40] LD
   160564888000   0        Seq                Done       >       [0x38a58, line 0x38a40] 1 cycles
160564888000: system.ruby.cp_cntrl0.sequencer: Cache miss at [0x38a58, line 0x38a40]
   160564888000   0   CorePair       C0_Load_L1hit     M0>M0     [0x38a40, line 0x38a40] 
   160564888500   0        Seq               Begin       >       [0x3fa8740, line 0x3fa8740] IFETCH
   160564890000   0        Seq                Done       >       [0x3fa8740, line 0x3fa8740] 1 cycles
160564890000: system.ruby.cp_cntrl0.sequencer: Cache miss at [0x3fa8740, line 0x3fa8740]
   160564890000   0   CorePair       Ifetch0_L1hit      S>S      [0x3fa8740, line 0x3fa8740] 
   160564890500   0        Seq               Begin       >       [0x10df948, line 0x10df940] LD
   160564892000   0        Seq                Done       >       [0x10df948, line 0x10df940] 1 cycles
160564892000: system.ruby.cp_cntrl0.sequencer: Cache miss at [0x10df948, line 0x10df940]
   160564892000   0   CorePair       C0_Load_L1hit     M0>M0     [0x10df940, line 0x10df940] 
   160564892500   0        Seq               Begin       >       [0x3fa8748, line 0x3fa8740] IFETCH
   160564894000   0        Seq                Done       >       [0x3fa8748, line 0x3fa8740] 1 cycles
160564894000: system.ruby.cp_cntrl0.sequencer: Cache miss at [0x3fa8748, line 0x3fa8740]
   160564894000   0   CorePair       Ifetch0_L1hit      S>S      [0x3fa8740, line 0x3fa8740] 
   160564894500   0        Seq               Begin       >       [0x3fa8748, line 0x3fa8740] IFETCH
   160564896000   0        Seq                Done       >       [0x3fa8748, line 0x3fa8740] 1 cycles
160564896000: system.ruby.cp_cntrl0.sequencer: Cache miss at [0x3fa8748, line 0x3fa8740]
   160564896000   0   CorePair       Ifetch0_L1hit      S>S      [0x3fa8740, line 0x3fa8740] 
   160564896500   0        Seq               Begin       >       [0x3fa8740, line 0x3fa8740] IFETCH
   160564898000   0        Seq                Done       >       [0x3fa8740, line 0x3fa8740] 1 cycles
160564898000: system.ruby.cp_cntrl0.sequencer: Cache miss at [0x3fa8740, line 0x3fa8740]
   160564898000   0   CorePair       Ifetch0_L1hit      S>S      [0x3fa8740, line 0x3fa8740] 
   160564898500   0        Seq               Begin       >       [0x38a58, line 0x38a40] ST
   160564900000   0        Seq                Done       >       [0x38a58, line 0x38a40] 1 cycles
160564900000: system.ruby.cp_cntrl0.sequencer: Cache miss at [0x38a58, line 0x38a40]
   160564900000   0   CorePair      C0_Store_L1hit     M0>M0     [0x38a40, line 0x38a40] 
   160564900500   0        Seq               Begin       >       [0xfaa3f0, line 0xfaa3c0] IFETCH
   160564902000   0        Seq                Done       >       [0xfaa3f0, line 0xfaa3c0] 1 cycles
160564902000: system.ruby.cp_cntrl0.sequencer: Cache miss at [0xfaa3f0, line 0xfaa3c0]
   160564902000   0   CorePair       Ifetch0_L1hit      S>S      [0xfaa3c0, line 0xfaa3c0] 
   160564902500   0        Seq               Begin       >       [0xfaa3f0, line 0xfaa3c0] IFETCH
   160564904000   0        Seq                Done       >       [0xfaa3f0, line 0xfaa3c0] 1 cycles
160564904000: system.ruby.cp_cntrl0.sequencer: Cache miss at [0xfaa3f0, line 0xfaa3c0]
   160564904000   0   CorePair       Ifetch0_L1hit      S>S      [0xfaa3c0, line 0xfaa3c0] 
   160564904500   0        Seq               Begin       >       [0xfaa3f8, line 0xfaa3c0] IFETCH
   160564906000   0        Seq                Done       >       [0xfaa3f8, line 0xfaa3c0] 1 cycles
160564906000: system.ruby.cp_cntrl0.sequencer: Cache miss at [0xfaa3f8, line 0xfaa3c0]
   160564906000   0   CorePair       Ifetch0_L1hit      S>S      [0xfaa3c0, line 0xfaa3c0] 
   160564906500   0        Seq               Begin       >       [0xf90c20, line 0xf90c00] IFETCH
   160564908000   0        Seq                Done       >       [0xf90c20, line 0xf90c00] 1 cycles
160564908000: system.ruby.cp_cntrl0.sequencer: Cache miss at [0xf90c20, line 0xf90c00]
   160564908000   0   CorePair       Ifetch0_L1hit      S>S      [0xf90c00, line 0xf90c00] 
   160564908500   0        Seq               Begin       >       [0xc62610, line 0xc62600] LD
   160564910000   0        Seq                Done       >       [0xc62610, line 0xc62600] 1 cycles
160564910000: system.ruby.cp_cntrl0.sequencer: Cache miss at [0xc62610, line 0xc62600]
   160564910000   0   CorePair       C0_Load_L1hit      S>S      [0xc62600, line 0xc62600] 
   160564910500   0        Seq               Begin       >       [0x13a7710, line 0x13a7700] IFETCH
   160564912000   0        Seq                Done       >       [0x13a7710, line 0x13a7700] 1 cycles
160564912000: system.ruby.cp_cntrl0.sequencer: Cache miss at [0x13a7710, line 0x13a7700]
   160564912000   0   CorePair       Ifetch0_L1hit      S>S      [0x13a7700, line 0x13a7700] 
   160564912500   0        Seq               Begin       >       [0x13a7710, line 0x13a7700] IFETCH
   160564914000   0        Seq                Done       >       [0x13a7710, line 0x13a7700] 1 cycles
160564914000: system.ruby.cp_cntrl0.sequencer: Cache miss at [0x13a7710, line 0x13a7700]
   160564914000   0   CorePair       Ifetch0_L1hit      S>S      [0x13a7700, line 0x13a7700] 
   160564914500   0        Seq               Begin       >       [0x13a7718, line 0x13a7700] IFETCH
   160564916000   0        Seq                Done       >       [0x13a7718, line 0x13a7700] 1 cycles
160564916000: system.ruby.cp_cntrl0.sequencer: Cache miss at [0x13a7718, line 0x13a7700]
   160564916000   0   CorePair       Ifetch0_L1hit      S>S      [0x13a7700, line 0x13a7700] 
   160564916500   0        Seq               Begin       >       [0x13a7718, line 0x13a7700] IFETCH
   160564918000   0        Seq                Done       >       [0x13a7718, line 0x13a7700] 1 cycles
160564918000: system.ruby.cp_cntrl0.sequencer: Cache miss at [0x13a7718, line 0x13a7700]
   160564918000   0   CorePair       Ifetch0_L1hit      S>S      [0x13a7700, line 0x13a7700] 
   160564918500   0        Seq               Begin       >       [0x13a7718, line 0x13a7700] IFETCH
   160564920000   0        Seq                Done       >       [0x13a7718, line 0x13a7700] 1 cycles
160564920000: system.ruby.cp_cntrl0.sequencer: Cache miss at [0x13a7718, line 0x13a7700]
   160564920000   0   CorePair       Ifetch0_L1hit      S>S      [0x13a7700, line 0x13a7700] 
   160564920500   0        Seq               Begin       >       [0x13a7720, line 0x13a7700] IFETCH
   160564922000   0        Seq                Done       >       [0x13a7720, line 0x13a7700] 1 cycles
160564922000: system.ruby.cp_cntrl0.sequencer: Cache miss at [0x13a7720, line 0x13a7700]
   160564922000   0   CorePair       Ifetch0_L1hit      S>S      [0x13a7700, line 0x13a7700] 
   160564922500   0        Seq               Begin       >       [0x13a7720, line 0x13a7700] IFETCH
   160564924000   0        Seq                Done       >       [0x13a7720, line 0x13a7700] 1 cycles
160564924000: system.ruby.cp_cntrl0.sequencer: Cache miss at [0x13a7720, line 0x13a7700]
   160564924000   0   CorePair       Ifetch0_L1hit      S>S      [0x13a7700, line 0x13a7700] 
   160564924500   0        Seq               Begin       >       [0x13a7720, line 0x13a7700] IFETCH
   160564926000   0        Seq                Done       >       [0x13a7720, line 0x13a7700] 1 cycles
160564926000: system.ruby.cp_cntrl0.sequencer: Cache miss at [0x13a7720, line 0x13a7700]
   160564926000   0   CorePair       Ifetch0_L1hit      S>S      [0x13a7700, line 0x13a7700] 
   160564926500   0        Seq               Begin       >       [0x38a58, line 0x38a40] LD
   160564927000  63  Directory          CPUPrbResp   B_Pm>B_Pm   [0x10d5bc0, line 0x10d5bc0]  Acks remaining: 0 Check: Acks remaining: 0
   160564928000  63  Directory   ProbeAcksComplete   B_Pm>B      [0x10d5bc0, line 0x10d5bc0] 
   160564928000   0        Seq                Done       >       [0x38a58, line 0x38a40] 1 cycles
160564928000: system.ruby.cp_cntrl0.sequencer: Cache miss at [0x38a58, line 0x38a40]
   160564928000   0   CorePair       C0_Load_L1hit     M0>M0     [0x38a40, line 0x38a40] 
   160564928500   0        Seq               Begin       >       [0x3fa8740, line 0x3fa8740] IFETCH
   160564930000   0        Seq                Done       >       [0x3fa8740, line 0x3fa8740] 1 cycles
160564930000: system.ruby.cp_cntrl0.sequencer: Cache miss at [0x3fa8740, line 0x3fa8740]
   160564930000   0   CorePair       Ifetch0_L1hit      S>S      [0x3fa8740, line 0x3fa8740] 
   160564930500   0        Seq               Begin       >       [0x10df948, line 0x10df940] LD
   160564932000   0        Seq                Done       >       [0x10df948, line 0x10df940] 1 cycles
160564932000: system.ruby.cp_cntrl0.sequencer: Cache miss at [0x10df948, line 0x10df940]
   160564932000   0   CorePair       C0_Load_L1hit     M0>M0     [0x10df940, line 0x10df940] 
   160564932500   0        Seq               Begin       >       [0x3fa8748, line 0x3fa8740] IFETCH
   160564934000   0        Seq                Done       >       [0x3fa8748, line 0x3fa8740] 1 cycles
160564934000: system.ruby.cp_cntrl0.sequencer: Cache miss at [0x3fa8748, line 0x3fa8740]
   160564934000   0   CorePair       Ifetch0_L1hit      S>S      [0x3fa8740, line 0x3fa8740] 
   160564934500   0        Seq               Begin       >       [0x3fa8748, line 0x3fa8740] IFETCH
   160564936000   0        Seq                Done       >       [0x3fa8748, line 0x3fa8740] 1 cycles
160564936000: system.ruby.cp_cntrl0.sequencer: Cache miss at [0x3fa8748, line 0x3fa8740]
   160564936000   0   CorePair       Ifetch0_L1hit      S>S      [0x3fa8740, line 0x3fa8740] 
   160564936500   0        Seq               Begin       >       [0x3fa8740, line 0x3fa8740] IFETCH
   160564938000   0        Seq                Done       >       [0x3fa8740, line 0x3fa8740] 1 cycles
160564938000: system.ruby.cp_cntrl0.sequencer: Cache miss at [0x3fa8740, line 0x3fa8740]
   160564938000   0   CorePair       Ifetch0_L1hit      S>S      [0x3fa8740, line 0x3fa8740] 
   160564938500   0        Seq               Begin       >       [0x38a58, line 0x38a40] ST
   160564940000   0        Seq                Done       >       [0x38a58, line 0x38a40] 1 cycles
160564940000: system.ruby.cp_cntrl0.sequencer: Cache miss at [0x38a58, line 0x38a40]
   160564940000   0   CorePair      C0_Store_L1hit     M0>M0     [0x38a40, line 0x38a40] 
   160564940500   0        Seq               Begin       >       [0xfaa3f0, line 0xfaa3c0] IFETCH
   160564942000   0  Directory        WriteThrough      U>BM_PM  [0x401d000, line 0x401d000]  dc: Acks remaining: 2
   160564942000   0        Seq                Done       >       [0xfaa3f0, line 0xfaa3c0] 1 cycles
160564942000: system.ruby.cp_cntrl0.sequencer: Cache miss at [0xfaa3f0, line 0xfaa3c0]
   160564942000   0   CorePair       Ifetch0_L1hit      S>S      [0xfaa3c0, line 0xfaa3c0] 
   160564942500   0        Seq               Begin       >       [0xfaa3f0, line 0xfaa3c0] IFETCH
   160564944000   0        Seq                Done       >       [0xfaa3f0, line 0xfaa3c0] 1 cycles
160564944000: system.ruby.cp_cntrl0.sequencer: Cache miss at [0xfaa3f0, line 0xfaa3c0]
   160564944000   0   CorePair       Ifetch0_L1hit      S>S      [0xfaa3c0, line 0xfaa3c0] 
   160564944500   0        Seq               Begin       >       [0xfaa3f8, line 0xfaa3c0] IFETCH
   160564946000   0        Seq                Done       >       [0xfaa3f8, line 0xfaa3c0] 1 cycles
160564946000: system.ruby.cp_cntrl0.sequencer: Cache miss at [0xfaa3f8, line 0xfaa3c0]
   160564946000   0   CorePair       Ifetch0_L1hit      S>S      [0xfaa3c0, line 0xfaa3c0] 
   160564946500   0        Seq               Begin       >       [0xf90c20, line 0xf90c00] IFETCH
   160564947105   0        TCC               WBAck     WI>I      [0x401d000, line 0x401d000] 
   160564947105   0        TCC               RdBlk      I>IV     [0x401d000, line 0x401d000] 
   160564948000   0        Seq                Done       >       [0xf90c20, line 0xf90c00] 1 cycles
160564948000: system.ruby.cp_cntrl0.sequencer: Cache miss at [0xf90c20, line 0xf90c00]
   160564948000   0   CorePair       Ifetch0_L1hit      S>S      [0xf90c00, line 0xf90c00] 
   160564948500   0        Seq               Begin       >       [0xc62610, line 0xc62600] LD
   160564950000   0        Seq                Done       >       [0xc62610, line 0xc62600] 1 cycles
160564950000: system.ruby.cp_cntrl0.sequencer: Cache miss at [0xc62610, line 0xc62600]
   160564950000   0   CorePair       C0_Load_L1hit      S>S      [0xc62600, line 0xc62600] 
   160564950500   0        Seq               Begin       >       [0x13a7710, line 0x13a7700] IFETCH
   160564952000   0        Seq                Done       >       [0x13a7710, line 0x13a7700] 1 cycles
160564952000: system.ruby.cp_cntrl0.sequencer: Cache miss at [0x13a7710, line 0x13a7700]
   160564952000   0   CorePair       Ifetch0_L1hit      S>S      [0x13a7700, line 0x13a7700] 
   160564952500   0        Seq               Begin       >       [0x13a7710, line 0x13a7700] IFETCH
   160564954000   0        Seq                Done       >       [0x13a7710, line 0x13a7700] 1 cycles
160564954000: system.ruby.cp_cntrl0.sequencer: Cache miss at [0x13a7710, line 0x13a7700]
   160564954000   0   CorePair       Ifetch0_L1hit      S>S      [0x13a7700, line 0x13a7700] 
   160564954500   0        Seq               Begin       >       [0x13a7718, line 0x13a7700] IFETCH
   160564956000   0        Seq                Done       >       [0x13a7718, line 0x13a7700] 1 cycles
160564956000: system.ruby.cp_cntrl0.sequencer: Cache miss at [0x13a7718, line 0x13a7700]
   160564956000   0   CorePair       Ifetch0_L1hit      S>S      [0x13a7700, line 0x13a7700] 
   160564956500   0        Seq               Begin       >       [0x13a7718, line 0x13a7700] IFETCH
   160564958000   0        Seq                Done       >       [0x13a7718, line 0x13a7700] 1 cycles
160564958000: system.ruby.cp_cntrl0.sequencer: Cache miss at [0x13a7718, line 0x13a7700]
   160564958000   0   CorePair       Ifetch0_L1hit      S>S      [0x13a7700, line 0x13a7700] 
   160564958500   0        Seq               Begin       >       [0x13a7718, line 0x13a7700] IFETCH
   160564960000   0        Seq                Done       >       [0x13a7718, line 0x13a7700] 1 cycles
160564960000: system.ruby.cp_cntrl0.sequencer: Cache miss at [0x13a7718, line 0x13a7700]
   160564960000   0   CorePair       Ifetch0_L1hit      S>S      [0x13a7700, line 0x13a7700] 
   160564960500   0        Seq               Begin       >       [0x13a7720, line 0x13a7700] IFETCH
160564962000: system.ruby.cp_cntrl1: MOESI_AMD_Base-CorePair.sm:1084: CP writeD0: address 17652672, data: [ 0x90 0xb 0x0 0xe0 0xfe 0x7f 0x0 0x0 0xa3 0xbb 0x4d 0x0 0x0 0x0 0x0 0x0 0x25 0x1b 0x4e 0x0 0x0 0x0 0x0 0x0 0x60 0x83 0x4d 0x0 0x0 0x0 0x0 0x0 0x0 0x0 0x0 0x0 0x0 0x0 0x0 0x0 0x51 0x0 0x0 0x0 0x0 0x0 0x0 0x0 0x0 0x0 0x0 0x0 0xff 0x7f 0x0 0x0 0x0 0x0 0x0 0x0 0x0 0x0 0x0 0x0 ]
160564962000: system.ruby.cp_cntrl1: MOESI_AMD_Base-CorePair.sm:868: CP Load Done 0 -- address 17652672, data: [ 0x90 0xb 0x0 0xe0 0xfe 0x7f 0x0 0x0 0xa3 0xbb 0x4d 0x0 0x0 0x0 0x0 0x0 0x25 0x1b 0x4e 0x0 0x0 0x0 0x0 0x0 0x60 0x83 0x4d 0x0 0x0 0x0 0x0 0x0 0x0 0x0 0x0 0x0 0x0 0x0 0x0 0x0 0x51 0x0 0x0 0x0 0x0 0x0 0x0 0x0 0x0 0x0 0x0 0x0 0xff 0x7f 0x0 0x0 0x0 0x0 0x0 0x0 0x0 0x0 0x0 0x0 ]
   160564962000   2        Seq                Done       >       [0x10d5bc8, line 0x10d5bc0] 318 cycles
160564962000: system.ruby.cp_cntrl1.sequencer: Cache hit at [0x10d5bc8, line 0x10d5bc0]
   160564962000   1   CorePair             NB_AckS  I_E0S>S      [0x10d5bc0, line 0x10d5bc0] 
   160564962000   0        Seq                Done       >       [0x13a7720, line 0x13a7700] 1 cycles
160564962000: system.ruby.cp_cntrl0.sequencer: Cache miss at [0x13a7720, line 0x13a7700]
   160564962000   0   CorePair       Ifetch0_L1hit      S>S      [0x13a7700, line 0x13a7700] 
   160564962500   2        Seq               Begin       >       [0x138bf90, line 0x138bf80] IFETCH
   160564962500   0        Seq               Begin       >       [0x13a7720, line 0x13a7700] IFETCH
   160564964000   0        Seq                Done       >       [0x13a7720, line 0x13a7700] 1 cycles
160564964000: system.ruby.cp_cntrl0.sequencer: Cache miss at [0x13a7720, line 0x13a7700]
   160564964000   0   CorePair       Ifetch0_L1hit      S>S      [0x13a7700, line 0x13a7700] 
   160564964000   2        Seq                Done       >       [0x138bf90, line 0x138bf80] 1 cycles
160564964000: system.ruby.cp_cntrl1.sequencer: Cache miss at [0x138bf90, line 0x138bf80]
   160564964000   1   CorePair       Ifetch0_L1hit      S>S      [0x138bf80, line 0x138bf80] 
   160564964500   0        Seq               Begin       >       [0x13a7720, line 0x13a7700] IFETCH
   160564964500   2        Seq               Begin       >       [0x138bf90, line 0x138bf80] IFETCH
   160564966000   2        Seq                Done       >       [0x138bf90, line 0x138bf80] 1 cycles
160564966000: system.ruby.cp_cntrl1.sequencer: Cache miss at [0x138bf90, line 0x138bf80]
   160564966000   1   CorePair       Ifetch0_L1hit      S>S      [0x138bf80, line 0x138bf80] 
   160564966000   0        Seq                Done       >       [0x13a7720, line 0x13a7700] 1 cycles
160564966000: system.ruby.cp_cntrl0.sequencer: Cache miss at [0x13a7720, line 0x13a7700]
   160564966000   0   CorePair       Ifetch0_L1hit      S>S      [0x13a7700, line 0x13a7700] 
   160564966500   2        Seq               Begin       >       [0x138bf98, line 0x138bf80] IFETCH
   160564966500   0        Seq               Begin       >       [0x38a58, line 0x38a40] LD
   160564968000   0        Seq                Done       >       [0x38a58, line 0x38a40] 1 cycles
160564968000: system.ruby.cp_cntrl0.sequencer: Cache miss at [0x38a58, line 0x38a40]
   160564968000   0   CorePair       C0_Load_L1hit     M0>M0     [0x38a40, line 0x38a40] 
   160564968000   2        Seq                Done       >       [0x138bf98, line 0x138bf80] 1 cycles
160564968000: system.ruby.cp_cntrl1.sequencer: Cache miss at [0x138bf98, line 0x138bf80]
   160564968000   1   CorePair       Ifetch0_L1hit      S>S      [0x138bf80, line 0x138bf80] 
   160564968500   0        Seq               Begin       >       [0x3fa8740, line 0x3fa8740] IFETCH
   160564968500   2        Seq               Begin       >       [0x10d5bd0, line 0x10d5bc0] LD
   160564970000   2        Seq                Done       >       [0x10d5bd0, line 0x10d5bc0] 1 cycles
160564970000: system.ruby.cp_cntrl1.sequencer: Cache miss at [0x10d5bd0, line 0x10d5bc0]
   160564970000   1   CorePair       C0_Load_L1hit      S>S      [0x10d5bc0, line 0x10d5bc0] 
   160564970000   0        Seq                Done       >       [0x3fa8740, line 0x3fa8740] 1 cycles
160564970000: system.ruby.cp_cntrl0.sequencer: Cache miss at [0x3fa8740, line 0x3fa8740]
   160564970000   0   CorePair       Ifetch0_L1hit      S>S      [0x3fa8740, line 0x3fa8740] 
   160564970500   2        Seq               Begin       >       [0x138bf98, line 0x138bf80] IFETCH
   160564970500   0        Seq               Begin       >       [0x10df948, line 0x10df940] LD
   160564972000   0        Seq                Done       >       [0x10df948, line 0x10df940] 1 cycles
160564972000: system.ruby.cp_cntrl0.sequencer: Cache miss at [0x10df948, line 0x10df940]
   160564972000   0   CorePair       C0_Load_L1hit     M0>M0     [0x10df940, line 0x10df940] 
   160564972000   2        Seq                Done       >       [0x138bf98, line 0x138bf80] 1 cycles
160564972000: system.ruby.cp_cntrl1.sequencer: Cache miss at [0x138bf98, line 0x138bf80]
   160564972000   1   CorePair       Ifetch0_L1hit      S>S      [0x138bf80, line 0x138bf80] 
   160564972500   0        Seq               Begin       >       [0x3fa8748, line 0x3fa8740] IFETCH
   160564972500   2        Seq               Begin       >       [0x138bf98, line 0x138bf80] IFETCH
   160564974000   2        Seq                Done       >       [0x138bf98, line 0x138bf80] 1 cycles
160564974000: system.ruby.cp_cntrl1.sequencer: Cache miss at [0x138bf98, line 0x138bf80]
   160564974000   1   CorePair       Ifetch0_L1hit      S>S      [0x138bf80, line 0x138bf80] 
   160564974000   0        Seq                Done       >       [0x3fa8748, line 0x3fa8740] 1 cycles
160564974000: system.ruby.cp_cntrl0.sequencer: Cache miss at [0x3fa8748, line 0x3fa8740]
   160564974000   0   CorePair       Ifetch0_L1hit      S>S      [0x3fa8740, line 0x3fa8740] 
   160564974500   2        Seq               Begin       >       [0x138bfa0, line 0x138bf80] IFETCH
   160564974500   0        Seq               Begin       >       [0x3fa8748, line 0x3fa8740] IFETCH
   160564976000   0   CorePair          PrbInvData      I>I      [0x401d000, line 0x401d000] 
   160564976000   0        Seq                Done       >       [0x3fa8748, line 0x3fa8740] 1 cycles
160564976000: system.ruby.cp_cntrl0.sequencer: Cache miss at [0x3fa8748, line 0x3fa8740]
   160564976000   0   CorePair       Ifetch0_L1hit      S>S      [0x3fa8740, line 0x3fa8740] 
   160564976000   1   CorePair          PrbInvData      I>I      [0x401d000, line 0x401d000] 
   160564976000   2        Seq                Done       >       [0x138bfa0, line 0x138bf80] 1 cycles
160564976000: system.ruby.cp_cntrl1.sequencer: Cache miss at [0x138bfa0, line 0x138bf80]
   160564976000   1   CorePair       Ifetch0_L1hit      S>S      [0x138bf80, line 0x138bf80] 
   160564976500   0        Seq               Begin       >       [0x3fa8740, line 0x3fa8740] IFETCH
   160564976500   2        Seq               Begin       >       [0x10d9ba8, line 0x10d9b80] LD
   160564978000   1   CorePair           L1D0_Repl     E0>E0     [0x3f99b80, line 0x3f99b80] 
   160564978000   1   CorePair      C0_Load_L1miss      I>I_E0S  [0x10d9b80, line 0x10d9b80] 
   160564978000   0        Seq                Done       >       [0x3fa8740, line 0x3fa8740] 1 cycles
160564978000: system.ruby.cp_cntrl0.sequencer: Cache miss at [0x3fa8740, line 0x3fa8740]
   160564978000   0   CorePair       Ifetch0_L1hit      S>S      [0x3fa8740, line 0x3fa8740] 
   160564978500   0        Seq               Begin       >       [0x38a58, line 0x38a40] ST
   160564980000   0        Seq                Done       >       [0x38a58, line 0x38a40] 1 cycles
160564980000: system.ruby.cp_cntrl0.sequencer: Cache miss at [0x38a58, line 0x38a40]
   160564980000   0   CorePair      C0_Store_L1hit     M0>M0     [0x38a40, line 0x38a40] 
   160564980500   0        Seq               Begin       >       [0xfaa3f0, line 0xfaa3c0] IFETCH
   160564982000   0        Seq                Done       >       [0xfaa3f0, line 0xfaa3c0] 1 cycles
160564982000: system.ruby.cp_cntrl0.sequencer: Cache miss at [0xfaa3f0, line 0xfaa3c0]
   160564982000   0   CorePair       Ifetch0_L1hit      S>S      [0xfaa3c0, line 0xfaa3c0] 
   160564982500   0        Seq               Begin       >       [0xfaa3f0, line 0xfaa3c0] IFETCH
   160564984000   0        Seq                Done       >       [0xfaa3f0, line 0xfaa3c0] 1 cycles
160564984000: system.ruby.cp_cntrl0.sequencer: Cache miss at [0xfaa3f0, line 0xfaa3c0]
   160564984000   0   CorePair       Ifetch0_L1hit      S>S      [0xfaa3c0, line 0xfaa3c0] 
   160564984500   0        Seq               Begin       >       [0xfaa3f8, line 0xfaa3c0] IFETCH
   160564986000   0        Seq                Done       >       [0xfaa3f8, line 0xfaa3c0] 1 cycles
160564986000: system.ruby.cp_cntrl0.sequencer: Cache miss at [0xfaa3f8, line 0xfaa3c0]
   160564986000   0   CorePair       Ifetch0_L1hit      S>S      [0xfaa3c0, line 0xfaa3c0] 
   160564986500   0        Seq               Begin       >       [0xf90c20, line 0xf90c00] IFETCH
   160564988000   0        Seq                Done       >       [0xf90c20, line 0xf90c00] 1 cycles
160564988000: system.ruby.cp_cntrl0.sequencer: Cache miss at [0xf90c20, line 0xf90c00]
   160564988000   0   CorePair       Ifetch0_L1hit      S>S      [0xf90c00, line 0xf90c00] 
   160564988500   0        Seq               Begin       >       [0xc62610, line 0xc62600] LD
   160564990000   0        Seq                Done       >       [0xc62610, line 0xc62600] 1 cycles
160564990000: system.ruby.cp_cntrl0.sequencer: Cache miss at [0xc62610, line 0xc62600]
   160564990000   0   CorePair       C0_Load_L1hit      S>S      [0xc62600, line 0xc62600] 
   160564990500   0        Seq               Begin       >       [0x13a7710, line 0x13a7700] IFETCH
   160564992000   0        Seq                Done       >       [0x13a7710, line 0x13a7700] 1 cycles
160564992000: system.ruby.cp_cntrl0.sequencer: Cache miss at [0x13a7710, line 0x13a7700]
   160564992000   0   CorePair       Ifetch0_L1hit      S>S      [0x13a7700, line 0x13a7700] 
   160564992500   0        Seq               Begin       >       [0x13a7710, line 0x13a7700] IFETCH
   160564994000   0        Seq                Done       >       [0x13a7710, line 0x13a7700] 1 cycles
160564994000: system.ruby.cp_cntrl0.sequencer: Cache miss at [0x13a7710, line 0x13a7700]
   160564994000   0   CorePair       Ifetch0_L1hit      S>S      [0x13a7700, line 0x13a7700] 
   160564994500   0        Seq               Begin       >       [0x13a7718, line 0x13a7700] IFETCH
   160564996000   0        Seq                Done       >       [0x13a7718, line 0x13a7700] 1 cycles
160564996000: system.ruby.cp_cntrl0.sequencer: Cache miss at [0x13a7718, line 0x13a7700]
   160564996000   0   CorePair       Ifetch0_L1hit      S>S      [0x13a7700, line 0x13a7700] 
   160564996500   0        Seq               Begin       >       [0x13a7718, line 0x13a7700] IFETCH
   160564998000   0        Seq                Done       >       [0x13a7718, line 0x13a7700] 1 cycles
160564998000: system.ruby.cp_cntrl0.sequencer: Cache miss at [0x13a7718, line 0x13a7700]
   160564998000   0   CorePair       Ifetch0_L1hit      S>S      [0x13a7700, line 0x13a7700] 
   160564998500   0        Seq               Begin       >       [0x13a7718, line 0x13a7700] IFETCH
   160564999000   0  Directory             MemData  BM_PM>BM_Pm  [0x401d000, line 0x401d000] 
   160565000000   0        Seq                Done       >       [0x13a7718, line 0x13a7700] 1 cycles
160565000000: system.ruby.cp_cntrl0.sequencer: Cache miss at [0x13a7718, line 0x13a7700]
   160565000000   0   CorePair       Ifetch0_L1hit      S>S      [0x13a7700, line 0x13a7700] 
   160565000500   0        Seq               Begin       >       [0x13a7720, line 0x13a7700] IFETCH
   160565002000   0        Seq                Done       >       [0x13a7720, line 0x13a7700] 1 cycles
160565002000: system.ruby.cp_cntrl0.sequencer: Cache miss at [0x13a7720, line 0x13a7700]
   160565002000   0   CorePair       Ifetch0_L1hit      S>S      [0x13a7700, line 0x13a7700] 
   160565002500   0        Seq               Begin       >       [0x13a7720, line 0x13a7700] IFETCH
   160565004000   0        Seq                Done       >       [0x13a7720, line 0x13a7700] 1 cycles
160565004000: system.ruby.cp_cntrl0.sequencer: Cache miss at [0x13a7720, line 0x13a7700]
   160565004000   0   CorePair       Ifetch0_L1hit      S>S      [0x13a7700, line 0x13a7700] 
   160565004500   0        Seq               Begin       >       [0x13a7720, line 0x13a7700] IFETCH
   160565006000   0        Seq                Done       >       [0x13a7720, line 0x13a7700] 1 cycles
160565006000: system.ruby.cp_cntrl0.sequencer: Cache miss at [0x13a7720, line 0x13a7700]
   160565006000   0   CorePair       Ifetch0_L1hit      S>S      [0x13a7700, line 0x13a7700] 
   160565006500   0        Seq               Begin       >       [0x38a58, line 0x38a40] LD
   160565008000   0        Seq                Done       >       [0x38a58, line 0x38a40] 1 cycles
160565008000: system.ruby.cp_cntrl0.sequencer: Cache miss at [0x38a58, line 0x38a40]
   160565008000   0   CorePair       C0_Load_L1hit     M0>M0     [0x38a40, line 0x38a40] 
   160565008500   0        Seq               Begin       >       [0x3fa8740, line 0x3fa8740] IFETCH
   160565010000   0        Seq                Done       >       [0x3fa8740, line 0x3fa8740] 1 cycles
160565010000: system.ruby.cp_cntrl0.sequencer: Cache miss at [0x3fa8740, line 0x3fa8740]
   160565010000   0   CorePair       Ifetch0_L1hit      S>S      [0x3fa8740, line 0x3fa8740] 
   160565010500   0        Seq               Begin       >       [0x10df948, line 0x10df940] LD
   160565012000   0        Seq                Done       >       [0x10df948, line 0x10df940] 1 cycles
160565012000: system.ruby.cp_cntrl0.sequencer: Cache miss at [0x10df948, line 0x10df940]
   160565012000   0   CorePair       C0_Load_L1hit     M0>M0     [0x10df940, line 0x10df940] 
   160565012500   0        Seq               Begin       >       [0x3fa8748, line 0x3fa8740] IFETCH
   160565014000   0        Seq                Done       >       [0x3fa8748, line 0x3fa8740] 1 cycles
160565014000: system.ruby.cp_cntrl0.sequencer: Cache miss at [0x3fa8748, line 0x3fa8740]
   160565014000   0   CorePair       Ifetch0_L1hit      S>S      [0x3fa8740, line 0x3fa8740] 
   160565014500   0        Seq               Begin       >       [0x3fa8748, line 0x3fa8740] IFETCH
   160565016000   0        Seq                Done       >       [0x3fa8748, line 0x3fa8740] 1 cycles
160565016000: system.ruby.cp_cntrl0.sequencer: Cache miss at [0x3fa8748, line 0x3fa8740]
   160565016000   0   CorePair       Ifetch0_L1hit      S>S      [0x3fa8740, line 0x3fa8740] 
   160565016500   0        Seq               Begin       >       [0x3fa8740, line 0x3fa8740] IFETCH
   160565018000   0  Directory               RdBlk  BM_Pm>BM_Pm  [0x401d000, line 0x401d000] 
   160565018000   0        Seq                Done       >       [0x3fa8740, line 0x3fa8740] 1 cycles
160565018000: system.ruby.cp_cntrl0.sequencer: Cache miss at [0x3fa8740, line 0x3fa8740]
   160565018000   0   CorePair       Ifetch0_L1hit      S>S      [0x3fa8740, line 0x3fa8740] 
   160565018500   0        Seq               Begin       >       [0x38a58, line 0x38a40] ST
   160565020000   0        Seq                Done       >       [0x38a58, line 0x38a40] 1 cycles
160565020000: system.ruby.cp_cntrl0.sequencer: Cache miss at [0x38a58, line 0x38a40]
   160565020000   0   CorePair      C0_Store_L1hit     M0>M0     [0x38a40, line 0x38a40] 
   160565020500   0        Seq               Begin       >       [0xfaa3f0, line 0xfaa3c0] IFETCH
   160565022000   0        Seq                Done       >       [0xfaa3f0, line 0xfaa3c0] 1 cycles
160565022000: system.ruby.cp_cntrl0.sequencer: Cache miss at [0xfaa3f0, line 0xfaa3c0]
   160565022000   0   CorePair       Ifetch0_L1hit      S>S      [0xfaa3c0, line 0xfaa3c0] 
   160565022500   0        Seq               Begin       >       [0xfaa3f0, line 0xfaa3c0] IFETCH
   160565024000   0        Seq                Done       >       [0xfaa3f0, line 0xfaa3c0] 1 cycles
160565024000: system.ruby.cp_cntrl0.sequencer: Cache miss at [0xfaa3f0, line 0xfaa3c0]
   160565024000   0   CorePair       Ifetch0_L1hit      S>S      [0xfaa3c0, line 0xfaa3c0] 
   160565024500   0        Seq               Begin       >       [0xfaa3f8, line 0xfaa3c0] IFETCH
   160565026000   0        Seq                Done       >       [0xfaa3f8, line 0xfaa3c0] 1 cycles
160565026000: system.ruby.cp_cntrl0.sequencer: Cache miss at [0xfaa3f8, line 0xfaa3c0]
   160565026000   0   CorePair       Ifetch0_L1hit      S>S      [0xfaa3c0, line 0xfaa3c0] 
   160565026500   0        Seq               Begin       >       [0xf90c20, line 0xf90c00] IFETCH
   160565028000   0        Seq                Done       >       [0xf90c20, line 0xf90c00] 1 cycles
160565028000: system.ruby.cp_cntrl0.sequencer: Cache miss at [0xf90c20, line 0xf90c00]
   160565028000   0   CorePair       Ifetch0_L1hit      S>S      [0xf90c00, line 0xf90c00] 
   160565028500   0        Seq               Begin       >       [0xc62610, line 0xc62600] LD
   160565030000   0        Seq                Done       >       [0xc62610, line 0xc62600] 1 cycles
160565030000: system.ruby.cp_cntrl0.sequencer: Cache miss at [0xc62610, line 0xc62600]
   160565030000   0   CorePair       C0_Load_L1hit      S>S      [0xc62600, line 0xc62600] 
   160565030500   0        Seq               Begin       >       [0x13a7710, line 0x13a7700] IFETCH
   160565032000   0        Seq                Done       >       [0x13a7710, line 0x13a7700] 1 cycles
160565032000: system.ruby.cp_cntrl0.sequencer: Cache miss at [0x13a7710, line 0x13a7700]
   160565032000   0   CorePair       Ifetch0_L1hit      S>S      [0x13a7700, line 0x13a7700] 
   160565032500   0        Seq               Begin       >       [0x13a7710, line 0x13a7700] IFETCH
   160565034000   0        Seq                Done       >       [0x13a7710, line 0x13a7700] 1 cycles
160565034000: system.ruby.cp_cntrl0.sequencer: Cache miss at [0x13a7710, line 0x13a7700]
   160565034000   0   CorePair       Ifetch0_L1hit      S>S      [0x13a7700, line 0x13a7700] 
   160565034500   0        Seq               Begin       >       [0x13a7718, line 0x13a7700] IFETCH
   160565036000   0        Seq                Done       >       [0x13a7718, line 0x13a7700] 1 cycles
160565036000: system.ruby.cp_cntrl0.sequencer: Cache miss at [0x13a7718, line 0x13a7700]
   160565036000   0   CorePair       Ifetch0_L1hit      S>S      [0x13a7700, line 0x13a7700] 
   160565036500   0        Seq               Begin       >       [0x13a7718, line 0x13a7700] IFETCH
   160565038000   0        Seq                Done       >       [0x13a7718, line 0x13a7700] 1 cycles
160565038000: system.ruby.cp_cntrl0.sequencer: Cache miss at [0x13a7718, line 0x13a7700]
   160565038000   0   CorePair       Ifetch0_L1hit      S>S      [0x13a7700, line 0x13a7700] 
   160565038500   0        Seq               Begin       >       [0x13a7718, line 0x13a7700] IFETCH
   160565040000   0        Seq                Done       >       [0x13a7718, line 0x13a7700] 1 cycles
160565040000: system.ruby.cp_cntrl0.sequencer: Cache miss at [0x13a7718, line 0x13a7700]
   160565040000   0   CorePair       Ifetch0_L1hit      S>S      [0x13a7700, line 0x13a7700] 
   160565040500   0        Seq               Begin       >       [0x13a7720, line 0x13a7700] IFETCH
   160565042000   0        Seq                Done       >       [0x13a7720, line 0x13a7700] 1 cycles
160565042000: system.ruby.cp_cntrl0.sequencer: Cache miss at [0x13a7720, line 0x13a7700]
   160565042000   0   CorePair       Ifetch0_L1hit      S>S      [0x13a7700, line 0x13a7700] 
   160565042500   0        Seq               Begin       >       [0x13a7720, line 0x13a7700] IFETCH
   160565044000   0        Seq                Done       >       [0x13a7720, line 0x13a7700] 1 cycles
160565044000: system.ruby.cp_cntrl0.sequencer: Cache miss at [0x13a7720, line 0x13a7700]
   160565044000   0   CorePair       Ifetch0_L1hit      S>S      [0x13a7700, line 0x13a7700] 
   160565044500   0        Seq               Begin       >       [0x13a7720, line 0x13a7700] IFETCH
   160565046000   0        Seq                Done       >       [0x13a7720, line 0x13a7700] 1 cycles
160565046000: system.ruby.cp_cntrl0.sequencer: Cache miss at [0x13a7720, line 0x13a7700]
   160565046000   0   CorePair       Ifetch0_L1hit      S>S      [0x13a7700, line 0x13a7700] 
   160565046500   0        Seq               Begin       >       [0x38a58, line 0x38a40] LD
   160565048000   0        Seq                Done       >       [0x38a58, line 0x38a40] 1 cycles
160565048000: system.ruby.cp_cntrl0.sequencer: Cache miss at [0x38a58, line 0x38a40]
   160565048000   0   CorePair       C0_Load_L1hit     M0>M0     [0x38a40, line 0x38a40] 
   160565048500   0        Seq               Begin       >       [0x3fa8740, line 0x3fa8740] IFETCH
   160565050000   0        Seq                Done       >       [0x3fa8740, line 0x3fa8740] 1 cycles
160565050000: system.ruby.cp_cntrl0.sequencer: Cache miss at [0x3fa8740, line 0x3fa8740]
   160565050000   0   CorePair       Ifetch0_L1hit      S>S      [0x3fa8740, line 0x3fa8740] 
   160565050500   0        Seq               Begin       >       [0x10df948, line 0x10df940] LD
   160565052000   0        Seq                Done       >       [0x10df948, line 0x10df940] 1 cycles
160565052000: system.ruby.cp_cntrl0.sequencer: Cache miss at [0x10df948, line 0x10df940]
   160565052000   0   CorePair       C0_Load_L1hit     M0>M0     [0x10df940, line 0x10df940] 
   160565052500   0        Seq               Begin       >       [0x3fa8748, line 0x3fa8740] IFETCH
   160565054000   0        Seq                Done       >       [0x3fa8748, line 0x3fa8740] 1 cycles
160565054000: system.ruby.cp_cntrl0.sequencer: Cache miss at [0x3fa8748, line 0x3fa8740]
   160565054000   0   CorePair       Ifetch0_L1hit      S>S      [0x3fa8740, line 0x3fa8740] 
   160565054500   0        Seq               Begin       >       [0x3fa8748, line 0x3fa8740] IFETCH
   160565056000   0        Seq                Done       >       [0x3fa8748, line 0x3fa8740] 1 cycles
160565056000: system.ruby.cp_cntrl0.sequencer: Cache miss at [0x3fa8748, line 0x3fa8740]
   160565056000   0   CorePair       Ifetch0_L1hit      S>S      [0x3fa8740, line 0x3fa8740] 
   160565056500   0        Seq               Begin       >       [0x3fa8740, line 0x3fa8740] IFETCH
   160565058000   0        Seq                Done       >       [0x3fa8740, line 0x3fa8740] 1 cycles
160565058000: system.ruby.cp_cntrl0.sequencer: Cache miss at [0x3fa8740, line 0x3fa8740]
   160565058000   0   CorePair       Ifetch0_L1hit      S>S      [0x3fa8740, line 0x3fa8740] 
   160565058500   0        Seq               Begin       >       [0x38a58, line 0x38a40] ST
   160565060000   0        Seq                Done       >       [0x38a58, line 0x38a40] 1 cycles
160565060000: system.ruby.cp_cntrl0.sequencer: Cache miss at [0x38a58, line 0x38a40]
   160565060000   0   CorePair      C0_Store_L1hit     M0>M0     [0x38a40, line 0x38a40] 
   160565060500   0        Seq               Begin       >       [0xfaa3f0, line 0xfaa3c0] IFETCH
   160565062000   0        Seq                Done       >       [0xfaa3f0, line 0xfaa3c0] 1 cycles
160565062000: system.ruby.cp_cntrl0.sequencer: Cache miss at [0xfaa3f0, line 0xfaa3c0]
   160565062000   0   CorePair       Ifetch0_L1hit      S>S      [0xfaa3c0, line 0xfaa3c0] 
   160565062500   0        Seq               Begin       >       [0xfaa3f0, line 0xfaa3c0] IFETCH
   160565064000   0        Seq                Done       >       [0xfaa3f0, line 0xfaa3c0] 1 cycles
160565064000: system.ruby.cp_cntrl0.sequencer: Cache miss at [0xfaa3f0, line 0xfaa3c0]
   160565064000   0   CorePair       Ifetch0_L1hit      S>S      [0xfaa3c0, line 0xfaa3c0] 
   160565064500   0        Seq               Begin       >       [0xfaa3f8, line 0xfaa3c0] IFETCH
   160565066000   0        Seq                Done       >       [0xfaa3f8, line 0xfaa3c0] 1 cycles
160565066000: system.ruby.cp_cntrl0.sequencer: Cache miss at [0xfaa3f8, line 0xfaa3c0]
   160565066000   0   CorePair       Ifetch0_L1hit      S>S      [0xfaa3c0, line 0xfaa3c0] 
   160565066500   0        Seq               Begin       >       [0xf90c20, line 0xf90c00] IFETCH
   160565068000   0        Seq                Done       >       [0xf90c20, line 0xf90c00] 1 cycles
160565068000: system.ruby.cp_cntrl0.sequencer: Cache miss at [0xf90c20, line 0xf90c00]
   160565068000   0   CorePair       Ifetch0_L1hit      S>S      [0xf90c00, line 0xf90c00] 
   160565068500   0        Seq               Begin       >       [0xc62610, line 0xc62600] LD
   160565070000   0        Seq                Done       >       [0xc62610, line 0xc62600] 1 cycles
160565070000: system.ruby.cp_cntrl0.sequencer: Cache miss at [0xc62610, line 0xc62600]
   160565070000   0   CorePair       C0_Load_L1hit      S>S      [0xc62600, line 0xc62600] 
   160565070500   0        Seq               Begin       >       [0x13a7710, line 0x13a7700] IFETCH
   160565072000   0        Seq                Done       >       [0x13a7710, line 0x13a7700] 1 cycles
160565072000: system.ruby.cp_cntrl0.sequencer: Cache miss at [0x13a7710, line 0x13a7700]
   160565072000   0   CorePair       Ifetch0_L1hit      S>S      [0x13a7700, line 0x13a7700] 
   160565072500   0        Seq               Begin       >       [0x13a7710, line 0x13a7700] IFETCH
   160565074000   0        Seq                Done       >       [0x13a7710, line 0x13a7700] 1 cycles
160565074000: system.ruby.cp_cntrl0.sequencer: Cache miss at [0x13a7710, line 0x13a7700]
   160565074000   0   CorePair       Ifetch0_L1hit      S>S      [0x13a7700, line 0x13a7700] 
   160565074500   0        Seq               Begin       >       [0x13a7718, line 0x13a7700] IFETCH
   160565076000   0        Seq                Done       >       [0x13a7718, line 0x13a7700] 1 cycles
160565076000: system.ruby.cp_cntrl0.sequencer: Cache miss at [0x13a7718, line 0x13a7700]
   160565076000   0   CorePair       Ifetch0_L1hit      S>S      [0x13a7700, line 0x13a7700] 
   160565076500   0        Seq               Begin       >       [0x13a7718, line 0x13a7700] IFETCH
   160565078000   0        Seq                Done       >       [0x13a7718, line 0x13a7700] 1 cycles
160565078000: system.ruby.cp_cntrl0.sequencer: Cache miss at [0x13a7718, line 0x13a7700]
   160565078000   0   CorePair       Ifetch0_L1hit      S>S      [0x13a7700, line 0x13a7700] 
   160565078500   0        Seq               Begin       >       [0x13a7718, line 0x13a7700] IFETCH
   160565080000   0        Seq                Done       >       [0x13a7718, line 0x13a7700] 1 cycles
160565080000: system.ruby.cp_cntrl0.sequencer: Cache miss at [0x13a7718, line 0x13a7700]
   160565080000   0   CorePair       Ifetch0_L1hit      S>S      [0x13a7700, line 0x13a7700] 
   160565080500   0        Seq               Begin       >       [0x13a7720, line 0x13a7700] IFETCH
   160565082000   0        Seq                Done       >       [0x13a7720, line 0x13a7700] 1 cycles
160565082000: system.ruby.cp_cntrl0.sequencer: Cache miss at [0x13a7720, line 0x13a7700]
   160565082000   0   CorePair       Ifetch0_L1hit      S>S      [0x13a7700, line 0x13a7700] 
   160565082500   0        Seq               Begin       >       [0x13a7720, line 0x13a7700] IFETCH
   160565084000   0        Seq                Done       >       [0x13a7720, line 0x13a7700] 1 cycles
160565084000: system.ruby.cp_cntrl0.sequencer: Cache miss at [0x13a7720, line 0x13a7700]
   160565084000   0   CorePair       Ifetch0_L1hit      S>S      [0x13a7700, line 0x13a7700] 
   160565084500   0        Seq               Begin       >       [0x13a7720, line 0x13a7700] IFETCH
   160565086000  63  Directory         CoreUnblock      B>U      [0x10d5bc0, line 0x10d5bc0] 
   160565086000   0        Seq                Done       >       [0x13a7720, line 0x13a7700] 1 cycles
160565086000: system.ruby.cp_cntrl0.sequencer: Cache miss at [0x13a7720, line 0x13a7700]
   160565086000   0   CorePair       Ifetch0_L1hit      S>S      [0x13a7700, line 0x13a7700] 
   160565086500   0        Seq               Begin       >       [0x38a58, line 0x38a40] LD
   160565088000   0        Seq                Done       >       [0x38a58, line 0x38a40] 1 cycles
160565088000: system.ruby.cp_cntrl0.sequencer: Cache miss at [0x38a58, line 0x38a40]
   160565088000   0   CorePair       C0_Load_L1hit     M0>M0     [0x38a40, line 0x38a40] 
   160565088500   0        Seq               Begin       >       [0x3fa8740, line 0x3fa8740] IFETCH
   160565090000   0        Seq                Done       >       [0x3fa8740, line 0x3fa8740] 1 cycles
160565090000: system.ruby.cp_cntrl0.sequencer: Cache miss at [0x3fa8740, line 0x3fa8740]
   160565090000   0   CorePair       Ifetch0_L1hit      S>S      [0x3fa8740, line 0x3fa8740] 
   160565090500   0        Seq               Begin       >       [0x10df948, line 0x10df940] LD
   160565092000   0        Seq                Done       >       [0x10df948, line 0x10df940] 1 cycles
160565092000: system.ruby.cp_cntrl0.sequencer: Cache miss at [0x10df948, line 0x10df940]
   160565092000   0   CorePair       C0_Load_L1hit     M0>M0     [0x10df940, line 0x10df940] 
   160565092500   0        Seq               Begin       >       [0x3fa8748, line 0x3fa8740] IFETCH
   160565094000   0        Seq                Done       >       [0x3fa8748, line 0x3fa8740] 1 cycles
160565094000: system.ruby.cp_cntrl0.sequencer: Cache miss at [0x3fa8748, line 0x3fa8740]
   160565094000   0   CorePair       Ifetch0_L1hit      S>S      [0x3fa8740, line 0x3fa8740] 
   160565094500   0        Seq               Begin       >       [0x3fa8748, line 0x3fa8740] IFETCH
   160565096000   0        Seq                Done       >       [0x3fa8748, line 0x3fa8740] 1 cycles
160565096000: system.ruby.cp_cntrl0.sequencer: Cache miss at [0x3fa8748, line 0x3fa8740]
   160565096000   0   CorePair       Ifetch0_L1hit      S>S      [0x3fa8740, line 0x3fa8740] 
   160565096500   0        Seq               Begin       >       [0x3fa8740, line 0x3fa8740] IFETCH
   160565098000   0        Seq                Done       >       [0x3fa8740, line 0x3fa8740] 1 cycles
160565098000: system.ruby.cp_cntrl0.sequencer: Cache miss at [0x3fa8740, line 0x3fa8740]
   160565098000   0   CorePair       Ifetch0_L1hit      S>S      [0x3fa8740, line 0x3fa8740] 
   160565098500   0        Seq               Begin       >       [0x38a58, line 0x38a40] ST
   160565100000   0  Directory          CPUPrbResp  BM_Pm>BM_Pm  [0x401d000, line 0x401d000]  Acks remaining: 1 Check: Acks remaining: 1
   160565100000   0        Seq                Done       >       [0x38a58, line 0x38a40] 1 cycles
160565100000: system.ruby.cp_cntrl0.sequencer: Cache miss at [0x38a58, line 0x38a40]
   160565100000   0   CorePair      C0_Store_L1hit     M0>M0     [0x38a40, line 0x38a40] 
   160565100500   0        Seq               Begin       >       [0xfaa3f0, line 0xfaa3c0] IFETCH
   160565101000   0  Directory          CPUPrbResp  BM_Pm>BM_Pm  [0x401d000, line 0x401d000]  Acks remaining: 0 Check: Acks remaining: 0
   160565102000  62  Directory               RdBlk      U>B_PM   [0x10d9b80, line 0x10d9b80]  sc: Acks remaining: 1
160565102000: system.ruby.dir_cntrl0: MOESI_AMD_Base-dir.sm:1099: [MemoryMsg: addr = [0x401d000, line 0x401d000] Type = MEMORY_WB Sender = Directory-0 OriginalRequestorMachId = NULL-0 DataBlk = [ 0x2 0x0 0x6 0xc0 0x0 0x0 0x0 0x0 0x7f 0xc0 0x8c 0xbf 0x0 0xff 0x2 0x80 0x80 0x0 0x0 0x0 0x1 0x80 0x3 0x82 0x0 0xff 0x4 0x80 0x0 0x1 0x0 0x0 0x2 0x2 0x4 0x7e 0x1 0x80 0x5 0x82 0x3 0x2 0x6 0x7e 0x0 0xff 0x2 0x80 0x80 0x1 0x0 0x0 0x1 0x80 0x3 0x82 0x4 0x2 0x8 0x7e 0x5 0x2 0xa 0x7e ] MessageSize = Writeback_Data Len = 0 Prefetch = No ReadX = 0 Acks = 0 isGLCSet = 0 isSLCSet = 0 ]
   160565102000   0  Directory   ProbeAcksComplete  BM_Pm>B      [0x401d000, line 0x401d000] 
   160565102000   0        Seq                Done       >       [0xfaa3f0, line 0xfaa3c0] 1 cycles
160565102000: system.ruby.cp_cntrl0.sequencer: Cache miss at [0xfaa3f0, line 0xfaa3c0]
   160565102000   0   CorePair       Ifetch0_L1hit      S>S      [0xfaa3c0, line 0xfaa3c0] 
   160565102500   0        Seq               Begin       >       [0xfaa3f0, line 0xfaa3c0] IFETCH
   160565103000   0  Directory UnblockWriteThrough      B>U      [0x401d000, line 0x401d000] 
   160565103000   0  Directory               RdBlk      U>B_PM   [0x401d000, line 0x401d000]  sc: Acks remaining: 2
   160565104000   0        Seq                Done       >       [0xfaa3f0, line 0xfaa3c0] 1 cycles
160565104000: system.ruby.cp_cntrl0.sequencer: Cache miss at [0xfaa3f0, line 0xfaa3c0]
   160565104000   0   CorePair       Ifetch0_L1hit      S>S      [0xfaa3c0, line 0xfaa3c0] 
   160565104500   0        Seq               Begin       >       [0xfaa3f8, line 0xfaa3c0] IFETCH
   160565106000   0        Seq                Done       >       [0xfaa3f8, line 0xfaa3c0] 1 cycles
160565106000: system.ruby.cp_cntrl0.sequencer: Cache miss at [0xfaa3f8, line 0xfaa3c0]
   160565106000   0   CorePair       Ifetch0_L1hit      S>S      [0xfaa3c0, line 0xfaa3c0] 
   160565106500   0        Seq               Begin       >       [0xf90c20, line 0xf90c00] IFETCH
   160565108000   0        Seq                Done       >       [0xf90c20, line 0xf90c00] 1 cycles
160565108000: system.ruby.cp_cntrl0.sequencer: Cache miss at [0xf90c20, line 0xf90c00]
   160565108000   0   CorePair       Ifetch0_L1hit      S>S      [0xf90c00, line 0xf90c00] 
   160565108500   0        Seq               Begin       >       [0xc62610, line 0xc62600] LD
   160565110000   0        Seq                Done       >       [0xc62610, line 0xc62600] 1 cycles
160565110000: system.ruby.cp_cntrl0.sequencer: Cache miss at [0xc62610, line 0xc62600]
   160565110000   0   CorePair       C0_Load_L1hit      S>S      [0xc62600, line 0xc62600] 
   160565110500   0        Seq               Begin       >       [0x13a7710, line 0x13a7700] IFETCH
   160565112000   0        Seq                Done       >       [0x13a7710, line 0x13a7700] 1 cycles
160565112000: system.ruby.cp_cntrl0.sequencer: Cache miss at [0x13a7710, line 0x13a7700]
   160565112000   0   CorePair       Ifetch0_L1hit      S>S      [0x13a7700, line 0x13a7700] 
   160565112500   0        Seq               Begin       >       [0x13a7710, line 0x13a7700] IFETCH
   160565114000   0  Directory               WBAck   B_PM>B_PM   [0x401d000, line 0x401d000] 
   160565114000  62  Directory             MemData   B_PM>B_Pm   [0x10d9b80, line 0x10d9b80] 
   160565114000   0        Seq                Done       >       [0x13a7710, line 0x13a7700] 1 cycles
160565114000: system.ruby.cp_cntrl0.sequencer: Cache miss at [0x13a7710, line 0x13a7700]
   160565114000   0   CorePair       Ifetch0_L1hit      S>S      [0x13a7700, line 0x13a7700] 
   160565114500   0        Seq               Begin       >       [0x13a7718, line 0x13a7700] IFETCH
   160565115000   0  Directory             MemData   B_PM>B_Pm   [0x401d000, line 0x401d000] 
   160565116000   0        Seq                Done       >       [0x13a7718, line 0x13a7700] 1 cycles
160565116000: system.ruby.cp_cntrl0.sequencer: Cache miss at [0x13a7718, line 0x13a7700]
   160565116000   0   CorePair       Ifetch0_L1hit      S>S      [0x13a7700, line 0x13a7700] 
   160565116500   0        Seq               Begin       >       [0x13a7718, line 0x13a7700] IFETCH
   160565118000   0        Seq                Done       >       [0x13a7718, line 0x13a7700] 1 cycles
160565118000: system.ruby.cp_cntrl0.sequencer: Cache miss at [0x13a7718, line 0x13a7700]
   160565118000   0   CorePair       Ifetch0_L1hit      S>S      [0x13a7700, line 0x13a7700] 
   160565118500   0        Seq               Begin       >       [0x13a7718, line 0x13a7700] IFETCH
   160565120000   0        Seq                Done       >       [0x13a7718, line 0x13a7700] 1 cycles
160565120000: system.ruby.cp_cntrl0.sequencer: Cache miss at [0x13a7718, line 0x13a7700]
   160565120000   0   CorePair       Ifetch0_L1hit      S>S      [0x13a7700, line 0x13a7700] 
   160565120500   0        Seq               Begin       >       [0x13a7720, line 0x13a7700] IFETCH
   160565122000   0        Seq                Done       >       [0x13a7720, line 0x13a7700] 1 cycles
160565122000: system.ruby.cp_cntrl0.sequencer: Cache miss at [0x13a7720, line 0x13a7700]
   160565122000   0   CorePair       Ifetch0_L1hit      S>S      [0x13a7700, line 0x13a7700] 
   160565122500   0        Seq               Begin       >       [0x13a7720, line 0x13a7700] IFETCH
   160565124000   0        Seq                Done       >       [0x13a7720, line 0x13a7700] 1 cycles
160565124000: system.ruby.cp_cntrl0.sequencer: Cache miss at [0x13a7720, line 0x13a7700]
   160565124000   0   CorePair       Ifetch0_L1hit      S>S      [0x13a7700, line 0x13a7700] 
   160565124500   0        Seq               Begin       >       [0x13a7720, line 0x13a7700] IFETCH
   160565126000   0        Seq                Done       >       [0x13a7720, line 0x13a7700] 1 cycles
160565126000: system.ruby.cp_cntrl0.sequencer: Cache miss at [0x13a7720, line 0x13a7700]
   160565126000   0   CorePair       Ifetch0_L1hit      S>S      [0x13a7700, line 0x13a7700] 
   160565126500   0        Seq               Begin       >       [0x38a58, line 0x38a40] LD
   160565128000   0        Seq                Done       >       [0x38a58, line 0x38a40] 1 cycles
160565128000: system.ruby.cp_cntrl0.sequencer: Cache miss at [0x38a58, line 0x38a40]
   160565128000   0   CorePair       C0_Load_L1hit     M0>M0     [0x38a40, line 0x38a40] 
   160565128500   0        Seq               Begin       >       [0x3fa8740, line 0x3fa8740] IFETCH
   160565130000   0        Seq                Done       >       [0x3fa8740, line 0x3fa8740] 1 cycles
160565130000: system.ruby.cp_cntrl0.sequencer: Cache miss at [0x3fa8740, line 0x3fa8740]
   160565130000   0   CorePair       Ifetch0_L1hit      S>S      [0x3fa8740, line 0x3fa8740] 
   160565130500   0        Seq               Begin       >       [0x10df948, line 0x10df940] LD
   160565132000   0        Seq                Done       >       [0x10df948, line 0x10df940] 1 cycles
160565132000: system.ruby.cp_cntrl0.sequencer: Cache miss at [0x10df948, line 0x10df940]
   160565132000   0   CorePair       C0_Load_L1hit     M0>M0     [0x10df940, line 0x10df940] 
   160565132500   0        Seq               Begin       >       [0x3fa8748, line 0x3fa8740] IFETCH
   160565134000   0        Seq                Done       >       [0x3fa8748, line 0x3fa8740] 1 cycles
160565134000: system.ruby.cp_cntrl0.sequencer: Cache miss at [0x3fa8748, line 0x3fa8740]
   160565134000   0   CorePair       Ifetch0_L1hit      S>S      [0x3fa8740, line 0x3fa8740] 
   160565134500   0        Seq               Begin       >       [0x3fa8748, line 0x3fa8740] IFETCH
   160565136000   0   CorePair          PrbShrData     M0>O      [0x10d9b80, line 0x10d9b80] 
   160565136000   0        Seq                Done       >       [0x3fa8748, line 0x3fa8740] 1 cycles
160565136000: system.ruby.cp_cntrl0.sequencer: Cache miss at [0x3fa8748, line 0x3fa8740]
   160565136000   0   CorePair       Ifetch0_L1hit      S>S      [0x3fa8740, line 0x3fa8740] 
   160565136500   0        Seq               Begin       >       [0x3fa8740, line 0x3fa8740] IFETCH
   160565137000   1   CorePair          PrbShrData      I>I      [0x401d000, line 0x401d000] 
   160565137000   0   CorePair          PrbShrData      I>I      [0x401d000, line 0x401d000] 
   160565138000   0        Seq                Done       >       [0x3fa8740, line 0x3fa8740] 1 cycles
160565138000: system.ruby.cp_cntrl0.sequencer: Cache miss at [0x3fa8740, line 0x3fa8740]
   160565138000   0   CorePair       Ifetch0_L1hit      S>S      [0x3fa8740, line 0x3fa8740] 
   160565138500   0        Seq               Begin       >       [0x38a58, line 0x38a40] ST
   160565140000   0        Seq                Done       >       [0x38a58, line 0x38a40] 1 cycles
160565140000: system.ruby.cp_cntrl0.sequencer: Cache miss at [0x38a58, line 0x38a40]
   160565140000   0   CorePair      C0_Store_L1hit     M0>M0     [0x38a40, line 0x38a40] 
   160565140500   0        Seq               Begin       >       [0xfaa3f0, line 0xfaa3c0] IFETCH
   160565142000   0        Seq                Done       >       [0xfaa3f0, line 0xfaa3c0] 1 cycles
160565142000: system.ruby.cp_cntrl0.sequencer: Cache miss at [0xfaa3f0, line 0xfaa3c0]
   160565142000   0   CorePair       Ifetch0_L1hit      S>S      [0xfaa3c0, line 0xfaa3c0] 
   160565142500   0        Seq               Begin       >       [0xfaa3f0, line 0xfaa3c0] IFETCH
   160565144000   0        Seq                Done       >       [0xfaa3f0, line 0xfaa3c0] 1 cycles
160565144000: system.ruby.cp_cntrl0.sequencer: Cache miss at [0xfaa3f0, line 0xfaa3c0]
   160565144000   0   CorePair       Ifetch0_L1hit      S>S      [0xfaa3c0, line 0xfaa3c0] 
   160565144500   0        Seq               Begin       >       [0xfaa3f8, line 0xfaa3c0] IFETCH
   160565146000   0        Seq                Done       >       [0xfaa3f8, line 0xfaa3c0] 1 cycles
160565146000: system.ruby.cp_cntrl0.sequencer: Cache miss at [0xfaa3f8, line 0xfaa3c0]
   160565146000   0   CorePair       Ifetch0_L1hit      S>S      [0xfaa3c0, line 0xfaa3c0] 
   160565146500   0        Seq               Begin       >       [0xf90c20, line 0xf90c00] IFETCH
   160565148000   0        Seq                Done       >       [0xf90c20, line 0xf90c00] 1 cycles
160565148000: system.ruby.cp_cntrl0.sequencer: Cache miss at [0xf90c20, line 0xf90c00]
   160565148000   0   CorePair       Ifetch0_L1hit      S>S      [0xf90c00, line 0xf90c00] 
   160565148500   0        Seq               Begin       >       [0xc62610, line 0xc62600] LD
   160565150000   0        Seq                Done       >       [0xc62610, line 0xc62600] 1 cycles
160565150000: system.ruby.cp_cntrl0.sequencer: Cache miss at [0xc62610, line 0xc62600]
   160565150000   0   CorePair       C0_Load_L1hit      S>S      [0xc62600, line 0xc62600] 
   160565150500   0        Seq               Begin       >       [0x13a7710, line 0x13a7700] IFETCH
   160565152000   0        Seq                Done       >       [0x13a7710, line 0x13a7700] 1 cycles
160565152000: system.ruby.cp_cntrl0.sequencer: Cache miss at [0x13a7710, line 0x13a7700]
   160565152000   0   CorePair       Ifetch0_L1hit      S>S      [0x13a7700, line 0x13a7700] 
   160565152500   0        Seq               Begin       >       [0x13a7710, line 0x13a7700] IFETCH
   160565154000   0        Seq                Done       >       [0x13a7710, line 0x13a7700] 1 cycles
160565154000: system.ruby.cp_cntrl0.sequencer: Cache miss at [0x13a7710, line 0x13a7700]
[...]
   160568842000   0        Seq                Done       >       [0x38a58, line 0x38a40] 1 cycles
160568842000: system.ruby.cp_cntrl0.sequencer: Cache miss at [0x38a58, line 0x38a40]
   160568842000   0   CorePair      C0_Store_L1hit     M0>M0     [0x38a40, line 0x38a40] 
   160568842500   0        Seq               Begin       >       [0xfaa3f0, line 0xfaa3c0] IFETCH
   160568844000   0        Seq                Done       >       [0xfaa3f0, line 0xfaa3c0] 1 cycles
160568844000: system.ruby.cp_cntrl0.sequencer: Cache miss at [0xfaa3f0, line 0xfaa3c0]
   160568844000   0   CorePair       Ifetch0_L1hit      S>S      [0xfaa3c0, line 0xfaa3c0] 
   160568844500   0        Seq               Begin       >       [0xfaa3f0, line 0xfaa3c0] IFETCH
   160568846000   0        Seq                Done       >       [0xfaa3f0, line 0xfaa3c0] 1 cycles
160568846000: system.ruby.cp_cntrl0.sequencer: Cache miss at [0xfaa3f0, line 0xfaa3c0]
   160568846000   0   CorePair       Ifetch0_L1hit      S>S      [0xfaa3c0, line 0xfaa3c0] 
   160568846500   0        Seq               Begin       >       [0xfaa3f8, line 0xfaa3c0] IFETCH
   160568848000   0        Seq                Done       >       [0xfaa3f8, line 0xfaa3c0] 1 cycles
160568848000: system.ruby.cp_cntrl0.sequencer: Cache miss at [0xfaa3f8, line 0xfaa3c0]
   160568848000   0   CorePair       Ifetch0_L1hit      S>S      [0xfaa3c0, line 0xfaa3c0] 
   160568848500   0        Seq               Begin       >       [0xf90c20, line 0xf90c00] IFETCH
   160568849000  25  Directory          CPUPrbResp   B_Pm>B_Pm   [0xc67540, line 0xc67540]  Acks remaining: 0 Check: Acks remaining: 0
160568850000: system.ruby.dir_cntrl25: MOESI_AMD_Base-dir.sm:1099: [MemoryMsg: addr = [0xc67540, line 0xc67540] Type = MEMORY_WB Sender = Directory-25 OriginalRequestorMachId = NULL-0 DataBlk = [ 0x30 0x7e 0xf4 0xf6 0xff 0x7f 0x0 0x0 0x0 0x7e 0xf4 0xf6 0xff 0x7f 0x0 0x0 0x70 0x59 0xf8 0xf6 0xff 0x7f 0x0 0x0 0x10 0xd3 0x4 0xf7 0xff 0x7f 0x0 0x0 0xb0 0xe5 0x4 0xf7 0xff 0x7f 0x0 0x0 0xa0 0x58 0xf8 0xf6 0xff 0x7f 0x0 0x0 0x0 0x0 0x0 0x0 0x0 0x0 0x0 0x0 0x20 0x94 0x10 0xf7 0xff 0x7f 0x0 0x0 ] MessageSize = Writeback_Data Len = 0 Prefetch = No ReadX = 0 Acks = 0 isGLCSet = 0 isSLCSet = 0 ]
   160568850000  25  Directory   ProbeAcksComplete   B_Pm>B      [0xc67540, line 0xc67540] 
   160568850000   0        Seq                Done       >       [0xf90c20, line 0xf90c00] 1 cycles
160568850000: system.ruby.cp_cntrl0.sequencer: Cache miss at [0xf90c20, line 0xf90c00]
   160568850000   0   CorePair       Ifetch0_L1hit      S>S      [0xf90c00, line 0xf90c00] 
   160568850500   0        Seq               Begin       >       [0xc62610, line 0xc62600] LD
   160568852000   0        Seq                Done       >       [0xc62610, line 0xc62600] 1 cycles
160568852000: system.ruby.cp_cntrl0.sequencer: Cache miss at [0xc62610, line 0xc62600]
   160568852000   0   CorePair       C0_Load_L1hit      S>S      [0xc62600, line 0xc62600] 
   160568852500   0        Seq               Begin       >       [0x13a7710, line 0x13a7700] IFETCH
   160568854000   0        Seq                Done       >       [0x13a7710, line 0x13a7700] 1 cycles
160568854000: system.ruby.cp_cntrl0.sequencer: Cache miss at [0x13a7710, line 0x13a7700]
   160568854000   0   CorePair       Ifetch0_L1hit      S>S      [0x13a7700, line 0x13a7700] 
   160568854500   0        Seq               Begin       >       [0x13a7710, line 0x13a7700] IFETCH
   160568856000   0        Seq                Done       >       [0x13a7710, line 0x13a7700] 1 cycles
160568856000: system.ruby.cp_cntrl0.sequencer: Cache miss at [0x13a7710, line 0x13a7700]
   160568856000   0   CorePair       Ifetch0_L1hit      S>S      [0x13a7700, line 0x13a7700] 
   160568856500   0        Seq               Begin       >       [0x13a7718, line 0x13a7700] IFETCH
   160568858000   0        Seq                Done       >       [0x13a7718, line 0x13a7700] 1 cycles
160568858000: system.ruby.cp_cntrl0.sequencer: Cache miss at [0x13a7718, line 0x13a7700]
   160568858000   0   CorePair       Ifetch0_L1hit      S>S      [0x13a7700, line 0x13a7700] 
   160568858500   0        Seq               Begin       >       [0x13a7718, line 0x13a7700] IFETCH
   160568860000   0        Seq                Done       >       [0x13a7718, line 0x13a7700] 1 cycles
160568860000: system.ruby.cp_cntrl0.sequencer: Cache miss at [0x13a7718, line 0x13a7700]
   160568860000   0   CorePair       Ifetch0_L1hit      S>S      [0x13a7700, line 0x13a7700] 
   160568860500   0        Seq               Begin       >       [0x13a7718, line 0x13a7700] IFETCH
   160568862000  25  Directory               WBAck      B>B      [0xc67540, line 0xc67540] 
   160568862000   0        Seq                Done       >       [0x13a7718, line 0x13a7700] 1 cycles
160568862000: system.ruby.cp_cntrl0.sequencer: Cache miss at [0x13a7718, line 0x13a7700]
   160568862000   0   CorePair       Ifetch0_L1hit      S>S      [0x13a7700, line 0x13a7700] 
   160568862500   0        Seq               Begin       >       [0x13a7720, line 0x13a7700] IFETCH
   160568864000   0        Seq                Done       >       [0x13a7720, line 0x13a7700] 1 cycles
160568864000: system.ruby.cp_cntrl0.sequencer: Cache miss at [0x13a7720, line 0x13a7700]
   160568864000   0   CorePair       Ifetch0_L1hit      S>S      [0x13a7700, line 0x13a7700] 
   160568864500   0        Seq               Begin       >       [0x13a7720, line 0x13a7700] IFETCH
   160568866000   0        Seq                Done       >       [0x13a7720, line 0x13a7700] 1 cycles
160568866000: system.ruby.cp_cntrl0.sequencer: Cache miss at [0x13a7720, line 0x13a7700]
   160568866000   0   CorePair       Ifetch0_L1hit      S>S      [0x13a7700, line 0x13a7700] 
   160568866500   0        Seq               Begin       >       [0x13a7720, line 0x13a7700] IFETCH
   160568868000   0        Seq                Done       >       [0x13a7720, line 0x13a7700] 1 cycles
160568868000: system.ruby.cp_cntrl0.sequencer: Cache miss at [0x13a7720, line 0x13a7700]
   160568868000   0   CorePair       Ifetch0_L1hit      S>S      [0x13a7700, line 0x13a7700] 
   160568868500   0        Seq               Begin       >       [0x38a58, line 0x38a40] LD
   160568870000   0        Seq                Done       >       [0x38a58, line 0x38a40] 1 cycles
160568870000: system.ruby.cp_cntrl0.sequencer: Cache miss at [0x38a58, line 0x38a40]
   160568870000   0   CorePair       C0_Load_L1hit     M0>M0     [0x38a40, line 0x38a40] 
   160568870500   0        Seq               Begin       >       [0x3fa8740, line 0x3fa8740] IFETCH
   160568872000   0        Seq                Done       >       [0x3fa8740, line 0x3fa8740] 1 cycles
160568872000: system.ruby.cp_cntrl0.sequencer: Cache miss at [0x3fa8740, line 0x3fa8740]
   160568872000   0   CorePair       Ifetch0_L1hit      S>S      [0x3fa8740, line 0x3fa8740] 
   160568872500   0        Seq               Begin       >       [0x10df948, line 0x10df940] LD
   160568874000   0        Seq                Done       >       [0x10df948, line 0x10df940] 1 cycles
160568874000: system.ruby.cp_cntrl0.sequencer: Cache miss at [0x10df948, line 0x10df940]
   160568874000   0   CorePair       C0_Load_L1hit      S>S      [0x10df940, line 0x10df940] 
   160568874500   0        Seq               Begin       >       [0x3fa8748, line 0x3fa8740] IFETCH
   160568876000   0        Seq                Done       >       [0x3fa8748, line 0x3fa8740] 1 cycles
160568876000: system.ruby.cp_cntrl0.sequencer: Cache miss at [0x3fa8748, line 0x3fa8740]
   160568876000   0   CorePair       Ifetch0_L1hit      S>S      [0x3fa8740, line 0x3fa8740] 
   160568876500   0        Seq               Begin       >       [0x3fa8748, line 0x3fa8740] IFETCH
   160568878000   0        Seq                Done       >       [0x3fa8748, line 0x3fa8740] 1 cycles
160568878000: system.ruby.cp_cntrl0.sequencer: Cache miss at [0x3fa8748, line 0x3fa8740]
   160568878000   0   CorePair       Ifetch0_L1hit      S>S      [0x3fa8740, line 0x3fa8740] 
   160568878500   0        Seq               Begin       >       [0x3fa8740, line 0x3fa8740] IFETCH
   160568880000   0        Seq                Done       >       [0x3fa8740, line 0x3fa8740] 1 cycles
160568880000: system.ruby.cp_cntrl0.sequencer: Cache miss at [0x3fa8740, line 0x3fa8740]
   160568880000   0   CorePair       Ifetch0_L1hit      S>S      [0x3fa8740, line 0x3fa8740] 
   160568880500   0        Seq               Begin       >       [0x38a58, line 0x38a40] ST
   160568882000   0        Seq                Done       >       [0x38a58, line 0x38a40] 1 cycles
160568882000: system.ruby.cp_cntrl0.sequencer: Cache miss at [0x38a58, line 0x38a40]
   160568882000   0   CorePair      C0_Store_L1hit     M0>M0     [0x38a40, line 0x38a40] 
   160568882500   0        Seq               Begin       >       [0xfaa3f0, line 0xfaa3c0] IFETCH
160568884000: system.ruby.cp_cntrl1: MOESI_AMD_Base-CorePair.sm:1084: CP writeD0: address 13006144, data: [ 0x30 0x7e 0xf4 0xf6 0xff 0x7f 0x0 0x0 0x0 0x7e 0xf4 0xf6 0xff 0x7f 0x0 0x0 0x70 0x59 0xf8 0xf6 0xff 0x7f 0x0 0x0 0x10 0xd3 0x4 0xf7 0xff 0x7f 0x0 0x0 0xb0 0xe5 0x4 0xf7 0xff 0x7f 0x0 0x0 0xa0 0x58 0xf8 0xf6 0xff 0x7f 0x0 0x0 0x0 0x0 0x0 0x0 0x0 0x0 0x0 0x0 0x20 0x94 0x10 0xf7 0xff 0x7f 0x0 0x0 ]
160568884000: system.ruby.cp_cntrl1: MOESI_AMD_Base-CorePair.sm:868: CP Load Done 0 -- address 13006144, data: [ 0x30 0x7e 0xf4 0xf6 0xff 0x7f 0x0 0x0 0x0 0x7e 0xf4 0xf6 0xff 0x7f 0x0 0x0 0x70 0x59 0xf8 0xf6 0xff 0x7f 0x0 0x0 0x10 0xd3 0x4 0xf7 0xff 0x7f 0x0 0x0 0xb0 0xe5 0x4 0xf7 0xff 0x7f 0x0 0x0 0xa0 0x58 0xf8 0xf6 0xff 0x7f 0x0 0x0 0x0 0x0 0x0 0x0 0x0 0x0 0x0 0x0 0x20 0x94 0x10 0xf7 0xff 0x7f 0x0 0x0 ]
   160568884000   2        Seq                Done       >       [0xc67568, line 0xc67540] 318 cycles
160568884000: system.ruby.cp_cntrl1.sequencer: Cache hit at [0xc67568, line 0xc67540]
   160568884000   1   CorePair             NB_AckS  I_E0S>S      [0xc67540, line 0xc67540] 
   160568884000   0        Seq                Done       >       [0xfaa3f0, line 0xfaa3c0] 1 cycles
160568884000: system.ruby.cp_cntrl0.sequencer: Cache miss at [0xfaa3f0, line 0xfaa3c0]
   160568884000   0   CorePair       Ifetch0_L1hit      S>S      [0xfaa3c0, line 0xfaa3c0] 
   160568884500   2        Seq               Begin       >       [0x139cc68, line 0x139cc40] ST
   160568884500   0        Seq               Begin       >       [0xfaa3f0, line 0xfaa3c0] IFETCH
   160568886000   0        Seq                Done       >       [0xfaa3f0, line 0xfaa3c0] 1 cycles
160568886000: system.ruby.cp_cntrl0.sequencer: Cache miss at [0xfaa3f0, line 0xfaa3c0]
   160568886000   0   CorePair       Ifetch0_L1hit      S>S      [0xfaa3c0, line 0xfaa3c0] 
   160568886000   2        Seq                Done       >       [0x139cc68, line 0x139cc40] 1 cycles
160568886000: system.ruby.cp_cntrl1.sequencer: Cache miss at [0x139cc68, line 0x139cc40]
   160568886000   1   CorePair      C0_Store_L1hit     M0>M0     [0x139cc40, line 0x139cc40] 
   160568886500   0        Seq               Begin       >       [0xfaa3f8, line 0xfaa3c0] IFETCH
   160568886500   2        Seq               Begin       >       [0x3faa8a0, line 0x3faa880] IFETCH
   160568888000   1   CorePair            L1I_Repl      S>S      [0x4296880, line 0x4296880] 
   160568888000   1   CorePair      Ifetch0_L1miss      I>S0     [0x3faa880, line 0x3faa880] 
   160568888000   0        Seq                Done       >       [0xfaa3f8, line 0xfaa3c0] 1 cycles
160568888000: system.ruby.cp_cntrl0.sequencer: Cache miss at [0xfaa3f8, line 0xfaa3c0]
   160568888000   0   CorePair       Ifetch0_L1hit      S>S      [0xfaa3c0, line 0xfaa3c0] 
   160568888500   0        Seq               Begin       >       [0xf90c20, line 0xf90c00] IFETCH
   160568888715   4       Coal               Begin       >       [0x1386108, line 0x1386100] LD
160568889270: system.ruby.tcp_cntrl0.coalescer: ReadCallBack GPU Cache hit at <extra arg>%x
160568889270: system.ruby.tcp_cntrl0.coalescer: GPU Cache hit at [0x1386108, line 0x1386100]
   160568889270   0        TCP                Load      V>V      [0x1386100, line 0x1386100] 
   160568890000   0        Seq                Done       >       [0xf90c20, line 0xf90c00] 1 cycles
160568890000: system.ruby.cp_cntrl0.sequencer: Cache miss at [0xf90c20, line 0xf90c00]
   160568890000   0   CorePair       Ifetch0_L1hit      S>S      [0xf90c00, line 0xf90c00] 
   160568890500   0        Seq               Begin       >       [0xc62610, line 0xc62600] LD
   160568892000   0        Seq                Done       >       [0xc62610, line 0xc62600] 1 cycles
160568892000: system.ruby.cp_cntrl0.sequencer: Cache miss at [0xc62610, line 0xc62600]
   160568892000   0   CorePair       C0_Load_L1hit      S>S      [0xc62600, line 0xc62600] 
   160568892500   0        Seq               Begin       >       [0x13a7710, line 0x13a7700] IFETCH
   160568894000   0        Seq                Done       >       [0x13a7710, line 0x13a7700] 1 cycles
160568894000: system.ruby.cp_cntrl0.sequencer: Cache miss at [0x13a7710, line 0x13a7700]
   160568894000   0   CorePair       Ifetch0_L1hit      S>S      [0x13a7700, line 0x13a7700] 
   160568894500   0        Seq               Begin       >       [0x13a7710, line 0x13a7700] IFETCH
   160568896000   0        Seq                Done       >       [0x13a7710, line 0x13a7700] 1 cycles
160568896000: system.ruby.cp_cntrl0.sequencer: Cache miss at [0x13a7710, line 0x13a7700]
   160568896000   0   CorePair       Ifetch0_L1hit      S>S      [0x13a7700, line 0x13a7700] 
   160568896500   0        Seq               Begin       >       [0x13a7718, line 0x13a7700] IFETCH
   160568898000   0        Seq                Done       >       [0x13a7718, line 0x13a7700] 1 cycles
160568898000: system.ruby.cp_cntrl0.sequencer: Cache miss at [0x13a7718, line 0x13a7700]
   160568898000   0   CorePair       Ifetch0_L1hit      S>S      [0x13a7700, line 0x13a7700] 
   160568898500   0        Seq               Begin       >       [0x13a7718, line 0x13a7700] IFETCH
   160568900000   0        Seq                Done       >       [0x13a7718, line 0x13a7700] 1 cycles
160568900000: system.ruby.cp_cntrl0.sequencer: Cache miss at [0x13a7718, line 0x13a7700]
   160568900000   0   CorePair       Ifetch0_L1hit      S>S      [0x13a7700, line 0x13a7700] 
   160568900500   0        Seq               Begin       >       [0x13a7718, line 0x13a7700] IFETCH
   160568902000   0        Seq                Done       >       [0x13a7718, line 0x13a7700] 1 cycles
160568902000: system.ruby.cp_cntrl0.sequencer: Cache miss at [0x13a7718, line 0x13a7700]
   160568902000   0   CorePair       Ifetch0_L1hit      S>S      [0x13a7700, line 0x13a7700] 
   160568902500   0        Seq               Begin       >       [0x13a7720, line 0x13a7700] IFETCH
   160568904000   0        Seq                Done       >       [0x13a7720, line 0x13a7700] 1 cycles
160568904000: system.ruby.cp_cntrl0.sequencer: Cache miss at [0x13a7720, line 0x13a7700]
   160568904000   0   CorePair       Ifetch0_L1hit      S>S      [0x13a7700, line 0x13a7700] 
   160568904500   0        Seq               Begin       >       [0x13a7720, line 0x13a7700] IFETCH
   160568906000   0        Seq                Done       >       [0x13a7720, line 0x13a7700] 1 cycles
160568906000: system.ruby.cp_cntrl0.sequencer: Cache miss at [0x13a7720, line 0x13a7700]
   160568906000   0   CorePair       Ifetch0_L1hit      S>S      [0x13a7700, line 0x13a7700] 
   160568906500   0        Seq               Begin       >       [0x13a7720, line 0x13a7700] IFETCH
   160568908000   0        Seq                Done       >       [0x13a7720, line 0x13a7700] 1 cycles
160568908000: system.ruby.cp_cntrl0.sequencer: Cache miss at [0x13a7720, line 0x13a7700]
   160568908000   0   CorePair       Ifetch0_L1hit      S>S      [0x13a7700, line 0x13a7700] 
   160568908500   0        Seq               Begin       >       [0x38a58, line 0x38a40] LD
   160568910000   0        Seq                Done       >       [0x38a58, line 0x38a40] 1 cycles
160568910000: system.ruby.cp_cntrl0.sequencer: Cache miss at [0x38a58, line 0x38a40]
   160568910000   0   CorePair       C0_Load_L1hit     M0>M0     [0x38a40, line 0x38a40] 
   160568910500   0        Seq               Begin       >       [0x3fa8740, line 0x3fa8740] IFETCH
   160568912000   0        Seq                Done       >       [0x3fa8740, line 0x3fa8740] 1 cycles
160568912000: system.ruby.cp_cntrl0.sequencer: Cache miss at [0x3fa8740, line 0x3fa8740]
   160568912000   0   CorePair       Ifetch0_L1hit      S>S      [0x3fa8740, line 0x3fa8740] 
   160568912500   0        Seq               Begin       >       [0x10df948, line 0x10df940] LD
   160568914000   0        Seq                Done       >       [0x10df948, line 0x10df940] 1 cycles
160568914000: system.ruby.cp_cntrl0.sequencer: Cache miss at [0x10df948, line 0x10df940]
   160568914000   0   CorePair       C0_Load_L1hit      S>S      [0x10df940, line 0x10df940] 
   160568914500   0        Seq               Begin       >       [0x3fa8748, line 0x3fa8740] IFETCH
   160568916000   0        Seq                Done       >       [0x3fa8748, line 0x3fa8740] 1 cycles
160568916000: system.ruby.cp_cntrl0.sequencer: Cache miss at [0x3fa8748, line 0x3fa8740]
   160568916000   0   CorePair       Ifetch0_L1hit      S>S      [0x3fa8740, line 0x3fa8740] 
   160568916500   0        Seq               Begin       >       [0x3fa8748, line 0x3fa8740] IFETCH
   160568918000  53  Directory         CoreUnblock      B>U      [0x10df940, line 0x10df940] 
   160568918000   0        Seq                Done       >       [0x3fa8748, line 0x3fa8740] 1 cycles
160568918000: system.ruby.cp_cntrl0.sequencer: Cache miss at [0x3fa8748, line 0x3fa8740]
   160568918000   0   CorePair       Ifetch0_L1hit      S>S      [0x3fa8740, line 0x3fa8740] 
   160568918500   0        Seq               Begin       >       [0x3fa8740, line 0x3fa8740] IFETCH
   160568920000   0        Seq                Done       >       [0x3fa8740, line 0x3fa8740] 1 cycles
160568920000: system.ruby.cp_cntrl0.sequencer: Cache miss at [0x3fa8740, line 0x3fa8740]
   160568920000   0   CorePair       Ifetch0_L1hit      S>S      [0x3fa8740, line 0x3fa8740] 
   160568920500   0        Seq               Begin       >       [0x38a58, line 0x38a40] ST
   160568922000   0        Seq                Done       >       [0x38a58, line 0x38a40] 1 cycles
160568922000: system.ruby.cp_cntrl0.sequencer: Cache miss at [0x38a58, line 0x38a40]
   160568922000   0   CorePair      C0_Store_L1hit     M0>M0     [0x38a40, line 0x38a40] 
   160568922500   0        Seq               Begin       >       [0xfaa3f0, line 0xfaa3c0] IFETCH
   160568924000   0        Seq                Done       >       [0xfaa3f0, line 0xfaa3c0] 1 cycles
160568924000: system.ruby.cp_cntrl0.sequencer: Cache miss at [0xfaa3f0, line 0xfaa3c0]
   160568924000   0   CorePair       Ifetch0_L1hit      S>S      [0xfaa3c0, line 0xfaa3c0] 
   160568924500   0        Seq               Begin       >       [0xfaa3f0, line 0xfaa3c0] IFETCH
   160568926000   0        Seq                Done       >       [0xfaa3f0, line 0xfaa3c0] 1 cycles
160568926000: system.ruby.cp_cntrl0.sequencer: Cache miss at [0xfaa3f0, line 0xfaa3c0]
   160568926000   0   CorePair       Ifetch0_L1hit      S>S      [0xfaa3c0, line 0xfaa3c0] 
   160568926500   0        Seq               Begin       >       [0xfaa3f8, line 0xfaa3c0] IFETCH
   160568928000   0        Seq                Done       >       [0xfaa3f8, line 0xfaa3c0] 1 cycles
160568928000: system.ruby.cp_cntrl0.sequencer: Cache miss at [0xfaa3f8, line 0xfaa3c0]
   160568928000   0   CorePair       Ifetch0_L1hit      S>S      [0xfaa3c0, line 0xfaa3c0] 
   160568928500   0        Seq               Begin       >       [0xf90c20, line 0xf90c00] IFETCH
Dummy value = 0
Ticks: 167652244500
Exiting because  exiting with last active thread context
