Global frequency set at 1000000000000 ticks per second
Forcing maxCoalescedReqs to 32 (TLB assoc.) 
Forcing maxCoalescedReqs to 32 (TLB assoc.) 
Forcing maxCoalescedReqs to 32 (TLB assoc.) 
Forcing maxCoalescedReqs to 32 (TLB assoc.) 
Forcing maxCoalescedReqs to 32 (TLB assoc.) 
Forcing maxCoalescedReqs to 32 (TLB assoc.) 
Forcing maxCoalescedReqs to 32 (TLB assoc.) 
Forcing maxCoalescedReqs to 32 (TLB assoc.) 
gem5 Simulator System.  https://www.gem5.org
gem5 is copyrighted software; use the --copyright option for details.

gem5 version DEVELOP-FOR-23.1
gem5 compiled Nov  4 2023 18:02:29
gem5 started Nov  4 2023 19:40:13
gem5 executing on 034769c3e5cd, pid 1
command line: build/VEGA_X86/gem5.opt --debug-flag=RubyHitMiss --debug-start=160596105001 --debug-end=160600412715 configs/example/apu_se.py -n 3 --dgpu --gfx-version=gfx900 --num-compute-units=4 --cu-per-sa=4 --num-gpu-complex=1 --reg-alloc-policy=dynamic --num-tccs=8 --num-dirs=64 --mem-size=16GB --mem-type=HBM_2000_4H_1x64 --vreg-file-size=16384 --sreg-file-size=800 --tcc-size=256kB --gpu-clock=1801MHz --ruby-clock=1000MHz --vrf_lm_bus_latency=6 --mem-req-latency=69 --mem-resp-latency=69 --mandatory_queue_latency=1 --max-cu-tokens=160 --max-coalesces-per-cycle=10 --sqc-size=16kB --tcp-size=512B --scalar-mem-req-latency=28 --TCP_latency=4 --tcp-assoc=4 --tcp-num-banks=16 --TCC_latency=121 --tcc-assoc=16 --tcc-tag-access-latency=1 --tcc-data-access-latency=1 --tcp-rp=FIFORP --WB_L2 --tcc-rp=FIFORP -c test-rp

info: Standard input is not a terminal, disabling listeners.
Num SQC =  1 Num scalar caches =  1 Num CU =  4
0x7ffee6dd1000, 0x7fffffffebe0
160596107000: system.ruby.cp_cntrl0.sequencer: Cache miss at [0xc62610, line 0xc62600]
160596109000: system.ruby.cp_cntrl0.sequencer: Cache miss at [0x13a9710, line 0x13a9700]
160596111000: system.ruby.cp_cntrl0.sequencer: Cache miss at [0x13a9710, line 0x13a9700]
160596113000: system.ruby.cp_cntrl0.sequencer: Cache miss at [0x13a9718, line 0x13a9700]
160596115000: system.ruby.cp_cntrl0.sequencer: Cache miss at [0x13a9718, line 0x13a9700]
160596117000: system.ruby.cp_cntrl0.sequencer: Cache miss at [0x13a9718, line 0x13a9700]
160596119000: system.ruby.cp_cntrl0.sequencer: Cache miss at [0x13a9720, line 0x13a9700]
160596121000: system.ruby.cp_cntrl0.sequencer: Cache miss at [0x13a9720, line 0x13a9700]
160596123000: system.ruby.cp_cntrl0.sequencer: Cache miss at [0x13a9720, line 0x13a9700]
160596125000: system.ruby.cp_cntrl0.sequencer: Cache miss at [0x38b08, line 0x38b00]
160596127000: system.ruby.cp_cntrl0.sequencer: Cache miss at [0x3faa740, line 0x3faa740]
160596129000: system.ruby.cp_cntrl0.sequencer: Cache miss at [0x10d9e78, line 0x10d9e40]
160596131000: system.ruby.cp_cntrl0.sequencer: Cache miss at [0x3faa748, line 0x3faa740]
160596133000: system.ruby.cp_cntrl0.sequencer: Cache miss at [0x3faa748, line 0x3faa740]
160596135000: system.ruby.cp_cntrl0.sequencer: Cache miss at [0x3faa740, line 0x3faa740]
160596137000: system.ruby.cp_cntrl0.sequencer: Cache miss at [0x38b08, line 0x38b00]
160596139000: system.ruby.cp_cntrl0.sequencer: Cache miss at [0xfaa3f0, line 0xfaa3c0]
160596141000: system.ruby.cp_cntrl0.sequencer: Cache miss at [0xfaa3f0, line 0xfaa3c0]
160596143000: system.ruby.cp_cntrl0.sequencer: Cache miss at [0xfaa3f8, line 0xfaa3c0]
160596145000: system.ruby.cp_cntrl0.sequencer: Cache miss at [0xf90c20, line 0xf90c00]
160596147000: system.ruby.cp_cntrl0.sequencer: Cache miss at [0xc62610, line 0xc62600]
160596149000: system.ruby.cp_cntrl1.sequencer: Cache hit at [0x13ad098, line 0x13ad080]
160596149000: system.ruby.cp_cntrl0.sequencer: Cache miss at [0x13a9710, line 0x13a9700]
160596151000: system.ruby.cp_cntrl0.sequencer: Cache miss at [0x13a9710, line 0x13a9700]
160596151000: system.ruby.cp_cntrl1.sequencer: Cache miss at [0x1399ba8, line 0x1399b80]
160596153000: system.ruby.cp_cntrl1.sequencer: Cache miss at [0x13ad098, line 0x13ad080]
160596153000: system.ruby.cp_cntrl0.sequencer: Cache miss at [0x13a9718, line 0x13a9700]
160596155000: system.ruby.cp_cntrl0.sequencer: Cache miss at [0x13a9718, line 0x13a9700]
160596155000: system.ruby.cp_cntrl1.sequencer: Cache miss at [0x13ad098, line 0x13ad080]
160596157000: system.ruby.cp_cntrl1.sequencer: Cache miss at [0x13ad0a0, line 0x13ad080]
160596157000: system.ruby.cp_cntrl0.sequencer: Cache miss at [0x13a9718, line 0x13a9700]
160596159000: system.ruby.cp_cntrl1.sequencer: Cache miss at [0x4297f10, line 0x4297f00]
160596159000: system.ruby.cp_cntrl0.sequencer: Cache miss at [0x13a9720, line 0x13a9700]
160596161000: system.ruby.cp_cntrl0.sequencer: Cache miss at [0x13a9720, line 0x13a9700]
160596161000: system.ruby.cp_cntrl1.sequencer: Cache miss at [0x4297f10, line 0x4297f00]
160596163000: system.ruby.cp_cntrl1.sequencer: Cache miss at [0x139ec40, line 0x139ec40]
160596163000: system.ruby.cp_cntrl0.sequencer: Cache miss at [0x13a9720, line 0x13a9700]
160596165000: system.ruby.cp_cntrl0.sequencer: Cache miss at [0x38b08, line 0x38b00]
160596165000: system.ruby.cp_cntrl1.sequencer: Cache miss at [0x4297f10, line 0x4297f00]
160596167000: system.ruby.cp_cntrl1.sequencer: Cache miss at [0x139ec48, line 0x139ec40]
160596167000: system.ruby.cp_cntrl0.sequencer: Cache miss at [0x3faa740, line 0x3faa740]
160596169000: system.ruby.cp_cntrl0.sequencer: Cache miss at [0x10d9e78, line 0x10d9e40]
160596169000: system.ruby.cp_cntrl1.sequencer: Cache miss at [0x4297f10, line 0x4297f00]
160596171000: system.ruby.cp_cntrl1.sequencer: Cache miss at [0x4297f18, line 0x4297f00]
160596171000: system.ruby.cp_cntrl0.sequencer: Cache miss at [0x3faa748, line 0x3faa740]
160596173000: system.ruby.cp_cntrl0.sequencer: Cache miss at [0x3faa748, line 0x3faa740]
160596173000: system.ruby.cp_cntrl1.sequencer: Cache miss at [0x139ec50, line 0x139ec40]
160596175000: system.ruby.cp_cntrl1.sequencer: Cache miss at [0x4297f18, line 0x4297f00]
160596175000: system.ruby.cp_cntrl0.sequencer: Cache miss at [0x3faa740, line 0x3faa740]
160596177000: system.ruby.cp_cntrl0.sequencer: Cache miss at [0x38b08, line 0x38b00]
160596177000: system.ruby.cp_cntrl1.sequencer: Cache miss at [0x139ec58, line 0x139ec40]
160596179000: system.ruby.cp_cntrl1.sequencer: Cache miss at [0x4297f18, line 0x4297f00]
160596179000: system.ruby.cp_cntrl0.sequencer: Cache miss at [0xfaa3f0, line 0xfaa3c0]
160596181000: system.ruby.cp_cntrl0.sequencer: Cache miss at [0xfaa3f0, line 0xfaa3c0]
160596181000: system.ruby.cp_cntrl1.sequencer: Cache miss at [0x139ec60, line 0x139ec40]
160596183000: system.ruby.cp_cntrl1.sequencer: Cache miss at [0x4297f18, line 0x4297f00]
160596183000: system.ruby.cp_cntrl0.sequencer: Cache miss at [0xfaa3f8, line 0xfaa3c0]
160596185000: system.ruby.cp_cntrl0.sequencer: Cache miss at [0xf90c20, line 0xf90c00]
160596185000: system.ruby.cp_cntrl1.sequencer: Cache miss at [0x139ec68, line 0x139ec40]
160596187000: system.ruby.cp_cntrl1.sequencer: Cache miss at [0x13aa108, line 0x13aa100]
160596187000: system.ruby.cp_cntrl0.sequencer: Cache miss at [0xc62610, line 0xc62600]
160596189000: system.ruby.cp_cntrl0.sequencer: Cache miss at [0x13a9710, line 0x13a9700]
160596189000: system.ruby.cp_cntrl1.sequencer: Cache miss at [0x13aa110, line 0x13aa100]
160596191000: system.ruby.cp_cntrl1.sequencer: Cache miss at [0x10d9ee0, line 0x10d9ec0]
160596191000: system.ruby.cp_cntrl0.sequencer: Cache miss at [0x13a9710, line 0x13a9700]
160596193000: system.ruby.cp_cntrl0.sequencer: Cache miss at [0x13a9718, line 0x13a9700]
160596193000: system.ruby.cp_cntrl1.sequencer: Cache miss at [0x13aa110, line 0x13aa100]
160596195000: system.ruby.cp_cntrl1.sequencer: Cache miss at [0x13aa110, line 0x13aa100]
160596195000: system.ruby.cp_cntrl0.sequencer: Cache miss at [0x13a9718, line 0x13a9700]
160596197000: system.ruby.cp_cntrl0.sequencer: Cache miss at [0x13a9718, line 0x13a9700]
160596197000: system.ruby.cp_cntrl1.sequencer: Cache miss at [0x13aa130, line 0x13aa100]
160596199000: system.ruby.cp_cntrl1.sequencer: Cache miss at [0x139ec80, line 0x139ec80]
160596199000: system.ruby.cp_cntrl0.sequencer: Cache miss at [0x13a9720, line 0x13a9700]
160596201000: system.ruby.cp_cntrl0.sequencer: Cache miss at [0x13a9720, line 0x13a9700]
160596201000: system.ruby.cp_cntrl1.sequencer: Cache miss at [0x13aa130, line 0x13aa100]
160596203000: system.ruby.cp_cntrl1.sequencer: Cache miss at [0x13aa138, line 0x13aa100]
160596203000: system.ruby.cp_cntrl0.sequencer: Cache miss at [0x13a9720, line 0x13a9700]
160596205000: system.ruby.cp_cntrl0.sequencer: Cache miss at [0x38b08, line 0x38b00]
160596205000: system.ruby.cp_cntrl1.sequencer: Cache miss at [0x138df90, line 0x138df80]
160596207000: system.ruby.cp_cntrl0.sequencer: Cache miss at [0x3faa740, line 0x3faa740]
160596209000: system.ruby.cp_cntrl0.sequencer: Cache miss at [0x10d9e78, line 0x10d9e40]
160596211000: system.ruby.cp_cntrl0.sequencer: Cache miss at [0x3faa748, line 0x3faa740]
160596213000: system.ruby.cp_cntrl0.sequencer: Cache miss at [0x3faa748, line 0x3faa740]
160596215000: system.ruby.cp_cntrl0.sequencer: Cache miss at [0x3faa740, line 0x3faa740]
160596217000: system.ruby.cp_cntrl0.sequencer: Cache miss at [0x38b08, line 0x38b00]
160596219000: system.ruby.cp_cntrl0.sequencer: Cache miss at [0xfaa3f0, line 0xfaa3c0]
160596221000: system.ruby.cp_cntrl0.sequencer: Cache miss at [0xfaa3f0, line 0xfaa3c0]
160596223000: system.ruby.cp_cntrl0.sequencer: Cache miss at [0xfaa3f8, line 0xfaa3c0]
160596225000: system.ruby.cp_cntrl0.sequencer: Cache miss at [0xf90c20, line 0xf90c00]
160596227000: system.ruby.cp_cntrl0.sequencer: Cache miss at [0xc62610, line 0xc62600]
160596229000: system.ruby.cp_cntrl0.sequencer: Cache miss at [0x13a9710, line 0x13a9700]
160596231000: system.ruby.cp_cntrl0.sequencer: Cache miss at [0x13a9710, line 0x13a9700]
160596233000: system.ruby.cp_cntrl0.sequencer: Cache miss at [0x13a9718, line 0x13a9700]
160596235000: system.ruby.cp_cntrl0.sequencer: Cache miss at [0x13a9718, line 0x13a9700]
160596237000: system.ruby.cp_cntrl0.sequencer: Cache miss at [0x13a9718, line 0x13a9700]
160596239000: system.ruby.cp_cntrl0.sequencer: Cache miss at [0x13a9720, line 0x13a9700]
160596241000: system.ruby.cp_cntrl0.sequencer: Cache miss at [0x13a9720, line 0x13a9700]
160596243000: system.ruby.cp_cntrl0.sequencer: Cache miss at [0x13a9720, line 0x13a9700]
160596245000: system.ruby.cp_cntrl0.sequencer: Cache miss at [0x38b08, line 0x38b00]
160596247000: system.ruby.cp_cntrl0.sequencer: Cache miss at [0x3faa740, line 0x3faa740]
160596249000: system.ruby.cp_cntrl0.sequencer: Cache miss at [0x10d9e78, line 0x10d9e40]
160596251000: system.ruby.cp_cntrl0.sequencer: Cache miss at [0x3faa748, line 0x3faa740]
160596253000: system.ruby.cp_cntrl0.sequencer: Cache miss at [0x3faa748, line 0x3faa740]
160596255000: system.ruby.cp_cntrl0.sequencer: Cache miss at [0x3faa740, line 0x3faa740]
160596257000: system.ruby.cp_cntrl0.sequencer: Cache miss at [0x38b08, line 0x38b00]
160596259000: system.ruby.cp_cntrl0.sequencer: Cache miss at [0xfaa3f0, line 0xfaa3c0]
160596261000: system.ruby.cp_cntrl0.sequencer: Cache miss at [0xfaa3f0, line 0xfaa3c0]
160596263000: system.ruby.cp_cntrl0.sequencer: Cache miss at [0xfaa3f8, line 0xfaa3c0]
160596265000: system.ruby.cp_cntrl0.sequencer: Cache miss at [0xf90c20, line 0xf90c00]
160596267000: system.ruby.cp_cntrl0.sequencer: Cache miss at [0xc62610, line 0xc62600]
160596269000: system.ruby.cp_cntrl0.sequencer: Cache miss at [0x13a9710, line 0x13a9700]
160596271000: system.ruby.cp_cntrl0.sequencer: Cache miss at [0x13a9710, line 0x13a9700]
160596273000: system.ruby.cp_cntrl0.sequencer: Cache miss at [0x13a9718, line 0x13a9700]
160596275000: system.ruby.cp_cntrl0.sequencer: Cache miss at [0x13a9718, line 0x13a9700]
160596277000: system.ruby.cp_cntrl0.sequencer: Cache miss at [0x13a9718, line 0x13a9700]
160596279000: system.ruby.cp_cntrl0.sequencer: Cache miss at [0x13a9720, line 0x13a9700]
160596281000: system.ruby.cp_cntrl0.sequencer: Cache miss at [0x13a9720, line 0x13a9700]
160596283000: system.ruby.cp_cntrl0.sequencer: Cache miss at [0x13a9720, line 0x13a9700]
160596285000: system.ruby.cp_cntrl0.sequencer: Cache miss at [0x38b08, line 0x38b00]
160596287000: system.ruby.cp_cntrl0.sequencer: Cache miss at [0x3faa740, line 0x3faa740]
160596289000: system.ruby.cp_cntrl0.sequencer: Cache miss at [0x10d9e78, line 0x10d9e40]
160596291000: system.ruby.cp_cntrl0.sequencer: Cache miss at [0x3faa748, line 0x3faa740]
160596293000: system.ruby.cp_cntrl0.sequencer: Cache miss at [0x3faa748, line 0x3faa740]
160596295000: system.ruby.cp_cntrl0.sequencer: Cache miss at [0x3faa740, line 0x3faa740]
160596297000: system.ruby.cp_cntrl0.sequencer: Cache miss at [0x38b08, line 0x38b00]
160596299000: system.ruby.cp_cntrl0.sequencer: Cache miss at [0xfaa3f0, line 0xfaa3c0]
160596301000: system.ruby.cp_cntrl0.sequencer: Cache miss at [0xfaa3f0, line 0xfaa3c0]
160596303000: system.ruby.cp_cntrl0.sequencer: Cache miss at [0xfaa3f8, line 0xfaa3c0]
160596305000: system.ruby.cp_cntrl0.sequencer: Cache miss at [0xf90c20, line 0xf90c00]
160596307000: system.ruby.cp_cntrl0.sequencer: Cache miss at [0xc62610, line 0xc62600]
160596309000: system.ruby.cp_cntrl0.sequencer: Cache miss at [0x13a9710, line 0x13a9700]
160596311000: system.ruby.cp_cntrl0.sequencer: Cache miss at [0x13a9710, line 0x13a9700]
160596313000: system.ruby.cp_cntrl0.sequencer: Cache miss at [0x13a9718, line 0x13a9700]
160596315000: system.ruby.cp_cntrl0.sequencer: Cache miss at [0x13a9718, line 0x13a9700]
160596317000: system.ruby.cp_cntrl0.sequencer: Cache miss at [0x13a9718, line 0x13a9700]
160596319000: system.ruby.cp_cntrl0.sequencer: Cache miss at [0x13a9720, line 0x13a9700]
160596321000: system.ruby.cp_cntrl0.sequencer: Cache miss at [0x13a9720, line 0x13a9700]
160596323000: system.ruby.cp_cntrl0.sequencer: Cache miss at [0x13a9720, line 0x13a9700]
160596325000: system.ruby.cp_cntrl0.sequencer: Cache miss at [0x38b08, line 0x38b00]
160596327000: system.ruby.cp_cntrl0.sequencer: Cache miss at [0x3faa740, line 0x3faa740]
160596329000: system.ruby.cp_cntrl0.sequencer: Cache miss at [0x10d9e78, line 0x10d9e40]
160596331000: system.ruby.cp_cntrl0.sequencer: Cache miss at [0x3faa748, line 0x3faa740]
160596333000: system.ruby.cp_cntrl0.sequencer: Cache miss at [0x3faa748, line 0x3faa740]
160596335000: system.ruby.cp_cntrl0.sequencer: Cache miss at [0x3faa740, line 0x3faa740]
160596337000: system.ruby.cp_cntrl0.sequencer: Cache miss at [0x38b08, line 0x38b00]
160596339000: system.ruby.cp_cntrl0.sequencer: Cache miss at [0xfaa3f0, line 0xfaa3c0]
160596341000: system.ruby.cp_cntrl0.sequencer: Cache miss at [0xfaa3f0, line 0xfaa3c0]
160596343000: system.ruby.cp_cntrl0.sequencer: Cache miss at [0xfaa3f8, line 0xfaa3c0]
160596345000: system.ruby.cp_cntrl0.sequencer: Cache miss at [0xf90c20, line 0xf90c00]
160596347000: system.ruby.cp_cntrl0.sequencer: Cache miss at [0xc62610, line 0xc62600]
160596349000: system.ruby.cp_cntrl0.sequencer: Cache miss at [0x13a9710, line 0x13a9700]
160596351000: system.ruby.cp_cntrl0.sequencer: Cache miss at [0x13a9710, line 0x13a9700]
160596353000: system.ruby.cp_cntrl0.sequencer: Cache miss at [0x13a9718, line 0x13a9700]
160596355000: system.ruby.cp_cntrl0.sequencer: Cache miss at [0x13a9718, line 0x13a9700]
160596357000: system.ruby.cp_cntrl0.sequencer: Cache miss at [0x13a9718, line 0x13a9700]
160596359000: system.ruby.cp_cntrl0.sequencer: Cache miss at [0x13a9720, line 0x13a9700]
160596361000: system.ruby.cp_cntrl0.sequencer: Cache miss at [0x13a9720, line 0x13a9700]
160596363000: system.ruby.cp_cntrl0.sequencer: Cache miss at [0x13a9720, line 0x13a9700]
160596365000: system.ruby.cp_cntrl0.sequencer: Cache miss at [0x38b08, line 0x38b00]
160596367000: system.ruby.cp_cntrl0.sequencer: Cache miss at [0x3faa740, line 0x3faa740]
160596369000: system.ruby.cp_cntrl0.sequencer: Cache miss at [0x10d9e78, line 0x10d9e40]
160596371000: system.ruby.cp_cntrl0.sequencer: Cache miss at [0x3faa748, line 0x3faa740]
160596373000: system.ruby.cp_cntrl0.sequencer: Cache miss at [0x3faa748, line 0x3faa740]
160596375000: system.ruby.cp_cntrl0.sequencer: Cache miss at [0x3faa740, line 0x3faa740]
160596377000: system.ruby.cp_cntrl0.sequencer: Cache miss at [0x38b08, line 0x38b00]
160596379000: system.ruby.cp_cntrl0.sequencer: Cache miss at [0xfaa3f0, line 0xfaa3c0]
160596381000: system.ruby.cp_cntrl0.sequencer: Cache miss at [0xfaa3f0, line 0xfaa3c0]
160596383000: system.ruby.cp_cntrl0.sequencer: Cache miss at [0xfaa3f8, line 0xfaa3c0]
160596385000: system.ruby.cp_cntrl0.sequencer: Cache miss at [0xf90c20, line 0xf90c00]
160596387000: system.ruby.cp_cntrl0.sequencer: Cache miss at [0xc62610, line 0xc62600]
160596389000: system.ruby.cp_cntrl0.sequencer: Cache miss at [0x13a9710, line 0x13a9700]
160596391000: system.ruby.cp_cntrl0.sequencer: Cache miss at [0x13a9710, line 0x13a9700]
160596393000: system.ruby.cp_cntrl0.sequencer: Cache miss at [0x13a9718, line 0x13a9700]
160596395000: system.ruby.cp_cntrl0.sequencer: Cache miss at [0x13a9718, line 0x13a9700]
160596397000: system.ruby.cp_cntrl0.sequencer: Cache miss at [0x13a9718, line 0x13a9700]
160596399000: system.ruby.cp_cntrl0.sequencer: Cache miss at [0x13a9720, line 0x13a9700]
160596401000: system.ruby.cp_cntrl0.sequencer: Cache miss at [0x13a9720, line 0x13a9700]
160596403000: system.ruby.cp_cntrl0.sequencer: Cache miss at [0x13a9720, line 0x13a9700]
160596405000: system.ruby.cp_cntrl0.sequencer: Cache miss at [0x38b08, line 0x38b00]
160596407000: system.ruby.cp_cntrl0.sequencer: Cache miss at [0x3faa740, line 0x3faa740]
160596409000: system.ruby.cp_cntrl0.sequencer: Cache miss at [0x10d9e78, line 0x10d9e40]
160596411000: system.ruby.cp_cntrl0.sequencer: Cache miss at [0x3faa748, line 0x3faa740]
160596413000: system.ruby.cp_cntrl0.sequencer: Cache miss at [0x3faa748, line 0x3faa740]
160596415000: system.ruby.cp_cntrl0.sequencer: Cache miss at [0x3faa740, line 0x3faa740]
160596417000: system.ruby.cp_cntrl0.sequencer: Cache miss at [0x38b08, line 0x38b00]
160596419000: system.ruby.cp_cntrl0.sequencer: Cache miss at [0xfaa3f0, line 0xfaa3c0]
160596421000: system.ruby.cp_cntrl0.sequencer: Cache miss at [0xfaa3f0, line 0xfaa3c0]
160596423000: system.ruby.cp_cntrl0.sequencer: Cache miss at [0xfaa3f8, line 0xfaa3c0]
160596425000: system.ruby.cp_cntrl0.sequencer: Cache miss at [0xf90c20, line 0xf90c00]
160596427000: system.ruby.cp_cntrl0.sequencer: Cache miss at [0xc62610, line 0xc62600]
160596429000: system.ruby.cp_cntrl0.sequencer: Cache miss at [0x13a9710, line 0x13a9700]
160596431000: system.ruby.cp_cntrl0.sequencer: Cache miss at [0x13a9710, line 0x13a9700]
160596433000: system.ruby.cp_cntrl0.sequencer: Cache miss at [0x13a9718, line 0x13a9700]
160596435000: system.ruby.cp_cntrl0.sequencer: Cache miss at [0x13a9718, line 0x13a9700]
160596437000: system.ruby.cp_cntrl0.sequencer: Cache miss at [0x13a9718, line 0x13a9700]
160596439000: system.ruby.cp_cntrl0.sequencer: Cache miss at [0x13a9720, line 0x13a9700]
160596441000: system.ruby.cp_cntrl0.sequencer: Cache miss at [0x13a9720, line 0x13a9700]
160596443000: system.ruby.cp_cntrl0.sequencer: Cache miss at [0x13a9720, line 0x13a9700]
160596445000: system.ruby.cp_cntrl0.sequencer: Cache miss at [0x38b08, line 0x38b00]
160596447000: system.ruby.cp_cntrl0.sequencer: Cache miss at [0x3faa740, line 0x3faa740]
160596449000: system.ruby.cp_cntrl0.sequencer: Cache miss at [0x10d9e78, line 0x10d9e40]
160596451000: system.ruby.cp_cntrl0.sequencer: Cache miss at [0x3faa748, line 0x3faa740]
160596453000: system.ruby.cp_cntrl0.sequencer: Cache miss at [0x3faa748, line 0x3faa740]
160596455000: system.ruby.cp_cntrl0.sequencer: Cache miss at [0x3faa740, line 0x3faa740]
160596457000: system.ruby.cp_cntrl0.sequencer: Cache miss at [0x38b08, line 0x38b00]
160596459000: system.ruby.cp_cntrl0.sequencer: Cache miss at [0xfaa3f0, line 0xfaa3c0]
160596461000: system.ruby.cp_cntrl0.sequencer: Cache miss at [0xfaa3f0, line 0xfaa3c0]
160596463000: system.ruby.cp_cntrl0.sequencer: Cache miss at [0xfaa3f8, line 0xfaa3c0]
160596465000: system.ruby.cp_cntrl0.sequencer: Cache miss at [0xf90c20, line 0xf90c00]
160596467000: system.ruby.cp_cntrl0.sequencer: Cache miss at [0xc62610, line 0xc62600]
160596469000: system.ruby.cp_cntrl0.sequencer: Cache miss at [0x13a9710, line 0x13a9700]
160596471000: system.ruby.cp_cntrl0.sequencer: Cache miss at [0x13a9710, line 0x13a9700]
160596473000: system.ruby.cp_cntrl0.sequencer: Cache miss at [0x13a9718, line 0x13a9700]
160596475000: system.ruby.cp_cntrl0.sequencer: Cache miss at [0x13a9718, line 0x13a9700]
160596477000: system.ruby.cp_cntrl0.sequencer: Cache miss at [0x13a9718, line 0x13a9700]
160596479000: system.ruby.cp_cntrl0.sequencer: Cache miss at [0x13a9720, line 0x13a9700]
160596481000: system.ruby.cp_cntrl0.sequencer: Cache miss at [0x13a9720, line 0x13a9700]
160596483000: system.ruby.cp_cntrl0.sequencer: Cache miss at [0x13a9720, line 0x13a9700]
160596485000: system.ruby.cp_cntrl0.sequencer: Cache miss at [0x38b08, line 0x38b00]
160596487000: system.ruby.cp_cntrl0.sequencer: Cache miss at [0x3faa740, line 0x3faa740]
160596489000: system.ruby.cp_cntrl0.sequencer: Cache miss at [0x10d9e78, line 0x10d9e40]
160596491000: system.ruby.cp_cntrl0.sequencer: Cache miss at [0x3faa748, line 0x3faa740]
160596493000: system.ruby.cp_cntrl0.sequencer: Cache miss at [0x3faa748, line 0x3faa740]
160596495000: system.ruby.cp_cntrl0.sequencer: Cache miss at [0x3faa740, line 0x3faa740]
160596497000: system.ruby.cp_cntrl0.sequencer: Cache miss at [0x38b08, line 0x38b00]
160596499000: system.ruby.cp_cntrl0.sequencer: Cache miss at [0xfaa3f0, line 0xfaa3c0]
160596501000: system.ruby.cp_cntrl0.sequencer: Cache miss at [0xfaa3f0, line 0xfaa3c0]
160596503000: system.ruby.cp_cntrl0.sequencer: Cache miss at [0xfaa3f8, line 0xfaa3c0]
160596505000: system.ruby.cp_cntrl0.sequencer: Cache miss at [0xf90c20, line 0xf90c00]
160596507000: system.ruby.cp_cntrl0.sequencer: Cache miss at [0xc62610, line 0xc62600]
160596509000: system.ruby.cp_cntrl0.sequencer: Cache miss at [0x13a9710, line 0x13a9700]
160596511000: system.ruby.cp_cntrl0.sequencer: Cache miss at [0x13a9710, line 0x13a9700]
160596513000: system.ruby.cp_cntrl0.sequencer: Cache miss at [0x13a9718, line 0x13a9700]
160596515000: system.ruby.cp_cntrl0.sequencer: Cache miss at [0x13a9718, line 0x13a9700]
160596517000: system.ruby.cp_cntrl0.sequencer: Cache miss at [0x13a9718, line 0x13a9700]
160596519000: system.ruby.cp_cntrl0.sequencer: Cache miss at [0x13a9720, line 0x13a9700]
160596521000: system.ruby.cp_cntrl0.sequencer: Cache miss at [0x13a9720, line 0x13a9700]
160596523000: system.ruby.cp_cntrl0.sequencer: Cache miss at [0x13a9720, line 0x13a9700]
160596525000: system.ruby.cp_cntrl0.sequencer: Cache miss at [0x38b08, line 0x38b00]
160596527000: system.ruby.cp_cntrl0.sequencer: Cache miss at [0x3faa740, line 0x3faa740]
160596529000: system.ruby.cp_cntrl0.sequencer: Cache miss at [0x10d9e78, line 0x10d9e40]
160596531000: system.ruby.cp_cntrl0.sequencer: Cache miss at [0x3faa748, line 0x3faa740]
160596533000: system.ruby.cp_cntrl1.sequencer: Cache hit at [0x10d7bd8, line 0x10d7bc0]
160596533000: system.ruby.cp_cntrl0.sequencer: Cache miss at [0x3faa748, line 0x3faa740]
160596535000: system.ruby.cp_cntrl0.sequencer: Cache miss at [0x3faa740, line 0x3faa740]
160596535000: system.ruby.cp_cntrl1.sequencer: Cache miss at [0x138df90, line 0x138df80]
160596537000: system.ruby.cp_cntrl1.sequencer: Cache miss at [0x138df90, line 0x138df80]
160596537000: system.ruby.cp_cntrl0.sequencer: Cache miss at [0x38b08, line 0x38b00]
160596539000: system.ruby.cp_cntrl0.sequencer: Cache miss at [0xfaa3f0, line 0xfaa3c0]
160596539000: system.ruby.cp_cntrl1.sequencer: Cache miss at [0x138df98, line 0x138df80]
160596541000: system.ruby.cp_cntrl1.sequencer: Cache miss at [0x10d7be0, line 0x10d7bc0]
160596541000: system.ruby.cp_cntrl0.sequencer: Cache miss at [0xfaa3f0, line 0xfaa3c0]
160596543000: system.ruby.cp_cntrl0.sequencer: Cache miss at [0xfaa3f8, line 0xfaa3c0]
160596543000: system.ruby.cp_cntrl1.sequencer: Cache miss at [0x138df98, line 0x138df80]
160596545000: system.ruby.cp_cntrl1.sequencer: Cache miss at [0x138df98, line 0x138df80]
160596545000: system.ruby.cp_cntrl0.sequencer: Cache miss at [0xf90c20, line 0xf90c00]
160596547000: system.ruby.cp_cntrl0.sequencer: Cache miss at [0xc62610, line 0xc62600]
160596547000: system.ruby.cp_cntrl1.sequencer: Cache miss at [0x138dfa0, line 0x138df80]
160596549000: system.ruby.cp_cntrl0.sequencer: Cache miss at [0x13a9710, line 0x13a9700]
160596551000: system.ruby.cp_cntrl0.sequencer: Cache miss at [0x13a9710, line 0x13a9700]
160596553000: system.ruby.cp_cntrl0.sequencer: Cache miss at [0x13a9718, line 0x13a9700]
160596555000: system.ruby.cp_cntrl0.sequencer: Cache miss at [0x13a9718, line 0x13a9700]
160596557000: system.ruby.cp_cntrl0.sequencer: Cache miss at [0x13a9718, line 0x13a9700]
160596559000: system.ruby.cp_cntrl0.sequencer: Cache miss at [0x13a9720, line 0x13a9700]
160596561000: system.ruby.cp_cntrl0.sequencer: Cache miss at [0x13a9720, line 0x13a9700]
160596563000: system.ruby.cp_cntrl0.sequencer: Cache miss at [0x13a9720, line 0x13a9700]
160596565000: system.ruby.cp_cntrl0.sequencer: Cache miss at [0x38b08, line 0x38b00]
160596567000: system.ruby.cp_cntrl0.sequencer: Cache miss at [0x3faa740, line 0x3faa740]
160596569000: system.ruby.cp_cntrl0.sequencer: Cache miss at [0x10d9e78, line 0x10d9e40]
160596571000: system.ruby.cp_cntrl0.sequencer: Cache miss at [0x3faa748, line 0x3faa740]
160596573000: system.ruby.cp_cntrl0.sequencer: Cache miss at [0x3faa748, line 0x3faa740]
160596575000: system.ruby.cp_cntrl0.sequencer: Cache miss at [0x3faa740, line 0x3faa740]
160596577000: system.ruby.cp_cntrl0.sequencer: Cache miss at [0x38b08, line 0x38b00]
160596579000: system.ruby.cp_cntrl0.sequencer: Cache miss at [0xfaa3f0, line 0xfaa3c0]
160596581000: system.ruby.cp_cntrl0.sequencer: Cache miss at [0xfaa3f0, line 0xfaa3c0]
160596583000: system.ruby.cp_cntrl0.sequencer: Cache miss at [0xfaa3f8, line 0xfaa3c0]
160596585000: system.ruby.cp_cntrl0.sequencer: Cache miss at [0xf90c20, line 0xf90c00]
160596587000: system.ruby.cp_cntrl0.sequencer: Cache miss at [0xc62610, line 0xc62600]
160596589000: system.ruby.cp_cntrl0.sequencer: Cache miss at [0x13a9710, line 0x13a9700]
160596591000: system.ruby.cp_cntrl0.sequencer: Cache miss at [0x13a9710, line 0x13a9700]
160596593000: system.ruby.cp_cntrl0.sequencer: Cache miss at [0x13a9718, line 0x13a9700]
160596595000: system.ruby.cp_cntrl0.sequencer: Cache miss at [0x13a9718, line 0x13a9700]
160596597000: system.ruby.cp_cntrl0.sequencer: Cache miss at [0x13a9718, line 0x13a9700]
160596599000: system.ruby.cp_cntrl0.sequencer: Cache miss at [0x13a9720, line 0x13a9700]
160596601000: system.ruby.cp_cntrl0.sequencer: Cache miss at [0x13a9720, line 0x13a9700]
160596603000: system.ruby.cp_cntrl0.sequencer: Cache miss at [0x13a9720, line 0x13a9700]
160596605000: system.ruby.cp_cntrl0.sequencer: Cache miss at [0x38b08, line 0x38b00]
160596607000: system.ruby.cp_cntrl0.sequencer: Cache miss at [0x3faa740, line 0x3faa740]
160596609000: system.ruby.cp_cntrl0.sequencer: Cache miss at [0x10d9e78, line 0x10d9e40]
160596611000: system.ruby.cp_cntrl0.sequencer: Cache miss at [0x3faa748, line 0x3faa740]
160596613000: system.ruby.cp_cntrl0.sequencer: Cache miss at [0x3faa748, line 0x3faa740]
160596615000: system.ruby.cp_cntrl0.sequencer: Cache miss at [0x3faa740, line 0x3faa740]
160596617000: system.ruby.cp_cntrl0.sequencer: Cache miss at [0x38b08, line 0x38b00]
160596619000: system.ruby.cp_cntrl0.sequencer: Cache miss at [0xfaa3f0, line 0xfaa3c0]
160596621000: system.ruby.cp_cntrl0.sequencer: Cache miss at [0xfaa3f0, line 0xfaa3c0]
160596623000: system.ruby.cp_cntrl0.sequencer: Cache miss at [0xfaa3f8, line 0xfaa3c0]
160596625000: system.ruby.cp_cntrl0.sequencer: Cache miss at [0xf90c20, line 0xf90c00]
160596627000: system.ruby.cp_cntrl0.sequencer: Cache miss at [0xc62610, line 0xc62600]
160596629000: system.ruby.cp_cntrl0.sequencer: Cache miss at [0x13a9710, line 0x13a9700]
160596631000: system.ruby.cp_cntrl0.sequencer: Cache miss at [0x13a9710, line 0x13a9700]
160596633000: system.ruby.cp_cntrl0.sequencer: Cache miss at [0x13a9718, line 0x13a9700]
160596635000: system.ruby.cp_cntrl0.sequencer: Cache miss at [0x13a9718, line 0x13a9700]
160596637000: system.ruby.cp_cntrl0.sequencer: Cache miss at [0x13a9718, line 0x13a9700]
160596639000: system.ruby.cp_cntrl0.sequencer: Cache miss at [0x13a9720, line 0x13a9700]
160596641000: system.ruby.cp_cntrl0.sequencer: Cache miss at [0x13a9720, line 0x13a9700]
160596643000: system.ruby.cp_cntrl0.sequencer: Cache miss at [0x13a9720, line 0x13a9700]
160596645000: system.ruby.cp_cntrl0.sequencer: Cache miss at [0x38b08, line 0x38b00]
160596647000: system.ruby.cp_cntrl0.sequencer: Cache miss at [0x3faa740, line 0x3faa740]
160596649000: system.ruby.cp_cntrl0.sequencer: Cache miss at [0x10d9e78, line 0x10d9e40]
160596651000: system.ruby.cp_cntrl0.sequencer: Cache miss at [0x3faa748, line 0x3faa740]
160596653000: system.ruby.cp_cntrl0.sequencer: Cache miss at [0x3faa748, line 0x3faa740]
160596655000: system.ruby.cp_cntrl0.sequencer: Cache miss at [0x3faa740, line 0x3faa740]
160596657000: system.ruby.cp_cntrl0.sequencer: Cache miss at [0x38b08, line 0x38b00]
160596659000: system.ruby.cp_cntrl0.sequencer: Cache miss at [0xfaa3f0, line 0xfaa3c0]
160596661000: system.ruby.cp_cntrl0.sequencer: Cache miss at [0xfaa3f0, line 0xfaa3c0]
160596663000: system.ruby.cp_cntrl0.sequencer: Cache miss at [0xfaa3f8, line 0xfaa3c0]
160596665000: system.ruby.cp_cntrl0.sequencer: Cache miss at [0xf90c20, line 0xf90c00]
160596667000: system.ruby.cp_cntrl0.sequencer: Cache miss at [0xc62610, line 0xc62600]
160596669000: system.ruby.cp_cntrl0.sequencer: Cache miss at [0x13a9710, line 0x13a9700]
160596671000: system.ruby.cp_cntrl0.sequencer: Cache miss at [0x13a9710, line 0x13a9700]
160596673000: system.ruby.cp_cntrl0.sequencer: Cache miss at [0x13a9718, line 0x13a9700]
160596675000: system.ruby.cp_cntrl0.sequencer: Cache miss at [0x13a9718, line 0x13a9700]
160596677000: system.ruby.cp_cntrl0.sequencer: Cache miss at [0x13a9718, line 0x13a9700]
160596679000: system.ruby.cp_cntrl0.sequencer: Cache miss at [0x13a9720, line 0x13a9700]
160596681000: system.ruby.cp_cntrl0.sequencer: Cache miss at [0x13a9720, line 0x13a9700]
160596683000: system.ruby.cp_cntrl0.sequencer: Cache miss at [0x13a9720, line 0x13a9700]
160596685000: system.ruby.cp_cntrl0.sequencer: Cache miss at [0x38b08, line 0x38b00]
160596687000: system.ruby.cp_cntrl0.sequencer: Cache miss at [0x3faa740, line 0x3faa740]
160596689000: system.ruby.cp_cntrl0.sequencer: Cache miss at [0x10d9e78, line 0x10d9e40]
160596691000: system.ruby.cp_cntrl0.sequencer: Cache miss at [0x3faa748, line 0x3faa740]
160596693000: system.ruby.cp_cntrl0.sequencer: Cache miss at [0x3faa748, line 0x3faa740]
160596695000: system.ruby.cp_cntrl0.sequencer: Cache miss at [0x3faa740, line 0x3faa740]
160596697000: system.ruby.cp_cntrl0.sequencer: Cache miss at [0x38b08, line 0x38b00]
160596699000: system.ruby.cp_cntrl0.sequencer: Cache miss at [0xfaa3f0, line 0xfaa3c0]
160596701000: system.ruby.cp_cntrl0.sequencer: Cache miss at [0xfaa3f0, line 0xfaa3c0]
160596703000: system.ruby.cp_cntrl0.sequencer: Cache miss at [0xfaa3f8, line 0xfaa3c0]
160596705000: system.ruby.cp_cntrl0.sequencer: Cache miss at [0xf90c20, line 0xf90c00]
160596707000: system.ruby.cp_cntrl0.sequencer: Cache miss at [0xc62610, line 0xc62600]
160596709000: system.ruby.cp_cntrl0.sequencer: Cache miss at [0x13a9710, line 0x13a9700]
160596711000: system.ruby.cp_cntrl0.sequencer: Cache miss at [0x13a9710, line 0x13a9700]
160596713000: system.ruby.cp_cntrl0.sequencer: Cache miss at [0x13a9718, line 0x13a9700]
160596715000: system.ruby.cp_cntrl0.sequencer: Cache miss at [0x13a9718, line 0x13a9700]
160596717000: system.ruby.cp_cntrl0.sequencer: Cache miss at [0x13a9718, line 0x13a9700]
160596719000: system.ruby.cp_cntrl0.sequencer: Cache miss at [0x13a9720, line 0x13a9700]
160596721000: system.ruby.cp_cntrl0.sequencer: Cache miss at [0x13a9720, line 0x13a9700]
160596723000: system.ruby.cp_cntrl0.sequencer: Cache miss at [0x13a9720, line 0x13a9700]
160596725000: system.ruby.cp_cntrl0.sequencer: Cache miss at [0x38b08, line 0x38b00]
160596727000: system.ruby.cp_cntrl0.sequencer: Cache miss at [0x3faa740, line 0x3faa740]
160596729000: system.ruby.cp_cntrl0.sequencer: Cache miss at [0x10d9e78, line 0x10d9e40]
160596731000: system.ruby.cp_cntrl0.sequencer: Cache miss at [0x3faa748, line 0x3faa740]
160596733000: system.ruby.cp_cntrl0.sequencer: Cache miss at [0x3faa748, line 0x3faa740]
160596735000: system.ruby.cp_cntrl0.sequencer: Cache miss at [0x3faa740, line 0x3faa740]
160596737000: system.ruby.cp_cntrl0.sequencer: Cache miss at [0x38b08, line 0x38b00]
160596739000: system.ruby.cp_cntrl0.sequencer: Cache miss at [0xfaa3f0, line 0xfaa3c0]
160596741000: system.ruby.cp_cntrl0.sequencer: Cache miss at [0xfaa3f0, line 0xfaa3c0]
160596743000: system.ruby.cp_cntrl0.sequencer: Cache miss at [0xfaa3f8, line 0xfaa3c0]
160596745000: system.ruby.cp_cntrl0.sequencer: Cache miss at [0xf90c20, line 0xf90c00]
160596747000: system.ruby.cp_cntrl0.sequencer: Cache miss at [0xc62610, line 0xc62600]
160596749000: system.ruby.cp_cntrl0.sequencer: Cache miss at [0x13a9710, line 0x13a9700]
160596751000: system.ruby.cp_cntrl0.sequencer: Cache miss at [0x13a9710, line 0x13a9700]
160596753000: system.ruby.cp_cntrl0.sequencer: Cache miss at [0x13a9718, line 0x13a9700]
160596755000: system.ruby.cp_cntrl0.sequencer: Cache miss at [0x13a9718, line 0x13a9700]
160596757000: system.ruby.cp_cntrl0.sequencer: Cache miss at [0x13a9718, line 0x13a9700]
160596759000: system.ruby.cp_cntrl0.sequencer: Cache miss at [0x13a9720, line 0x13a9700]
160596761000: system.ruby.cp_cntrl0.sequencer: Cache miss at [0x13a9720, line 0x13a9700]
160596763000: system.ruby.cp_cntrl0.sequencer: Cache miss at [0x13a9720, line 0x13a9700]
160596765000: system.ruby.cp_cntrl0.sequencer: Cache miss at [0x38b08, line 0x38b00]
160596767000: system.ruby.cp_cntrl0.sequencer: Cache miss at [0x3faa740, line 0x3faa740]
160596769000: system.ruby.cp_cntrl0.sequencer: Cache miss at [0x10d9e78, line 0x10d9e40]
160596771000: system.ruby.cp_cntrl0.sequencer: Cache miss at [0x3faa748, line 0x3faa740]
160596773000: system.ruby.cp_cntrl0.sequencer: Cache miss at [0x3faa748, line 0x3faa740]
160596775000: system.ruby.cp_cntrl0.sequencer: Cache miss at [0x3faa740, line 0x3faa740]
160596777000: system.ruby.cp_cntrl0.sequencer: Cache miss at [0x38b08, line 0x38b00]
160596779000: system.ruby.cp_cntrl0.sequencer: Cache miss at [0xfaa3f0, line 0xfaa3c0]
160596781000: system.ruby.cp_cntrl0.sequencer: Cache miss at [0xfaa3f0, line 0xfaa3c0]
160596783000: system.ruby.cp_cntrl0.sequencer: Cache miss at [0xfaa3f8, line 0xfaa3c0]
160596785000: system.ruby.cp_cntrl0.sequencer: Cache miss at [0xf90c20, line 0xf90c00]
160596787000: system.ruby.cp_cntrl0.sequencer: Cache miss at [0xc62610, line 0xc62600]
160596789000: system.ruby.cp_cntrl0.sequencer: Cache miss at [0x13a9710, line 0x13a9700]
160596791000: system.ruby.cp_cntrl0.sequencer: Cache miss at [0x13a9710, line 0x13a9700]
160596793000: system.ruby.cp_cntrl0.sequencer: Cache miss at [0x13a9718, line 0x13a9700]
160596795000: system.ruby.cp_cntrl0.sequencer: Cache miss at [0x13a9718, line 0x13a9700]
160596797000: system.ruby.cp_cntrl0.sequencer: Cache miss at [0x13a9718, line 0x13a9700]
160596799000: system.ruby.cp_cntrl0.sequencer: Cache miss at [0x13a9720, line 0x13a9700]
160596801000: system.ruby.cp_cntrl0.sequencer: Cache miss at [0x13a9720, line 0x13a9700]
160596803000: system.ruby.cp_cntrl0.sequencer: Cache miss at [0x13a9720, line 0x13a9700]
160596805000: system.ruby.cp_cntrl0.sequencer: Cache miss at [0x38b08, line 0x38b00]
160596807000: system.ruby.cp_cntrl0.sequencer: Cache miss at [0x3faa740, line 0x3faa740]
160596809000: system.ruby.cp_cntrl0.sequencer: Cache miss at [0x10d9e78, line 0x10d9e40]
160596811000: system.ruby.cp_cntrl0.sequencer: Cache miss at [0x3faa748, line 0x3faa740]
160596813000: system.ruby.cp_cntrl0.sequencer: Cache miss at [0x3faa748, line 0x3faa740]
160596815000: system.ruby.cp_cntrl0.sequencer: Cache miss at [0x3faa740, line 0x3faa740]
160596817000: system.ruby.cp_cntrl0.sequencer: Cache miss at [0x38b08, line 0x38b00]
160596819000: system.ruby.cp_cntrl0.sequencer: Cache miss at [0xfaa3f0, line 0xfaa3c0]
160596821000: system.ruby.cp_cntrl0.sequencer: Cache miss at [0xfaa3f0, line 0xfaa3c0]
160596823000: system.ruby.cp_cntrl0.sequencer: Cache miss at [0xfaa3f8, line 0xfaa3c0]
160596825000: system.ruby.cp_cntrl0.sequencer: Cache miss at [0xf90c20, line 0xf90c00]
160596827000: system.ruby.cp_cntrl0.sequencer: Cache miss at [0xc62610, line 0xc62600]
160596829000: system.ruby.cp_cntrl0.sequencer: Cache miss at [0x13a9710, line 0x13a9700]
160596831000: system.ruby.cp_cntrl0.sequencer: Cache miss at [0x13a9710, line 0x13a9700]
160596833000: system.ruby.cp_cntrl0.sequencer: Cache miss at [0x13a9718, line 0x13a9700]
160596835000: system.ruby.cp_cntrl0.sequencer: Cache miss at [0x13a9718, line 0x13a9700]
160596837000: system.ruby.cp_cntrl0.sequencer: Cache miss at [0x13a9718, line 0x13a9700]
160596839000: system.ruby.cp_cntrl0.sequencer: Cache miss at [0x13a9720, line 0x13a9700]
160596841000: system.ruby.cp_cntrl0.sequencer: Cache miss at [0x13a9720, line 0x13a9700]
160596843000: system.ruby.cp_cntrl0.sequencer: Cache miss at [0x13a9720, line 0x13a9700]
160596845000: system.ruby.cp_cntrl0.sequencer: Cache miss at [0x38b08, line 0x38b00]
160596847000: system.ruby.cp_cntrl0.sequencer: Cache miss at [0x3faa740, line 0x3faa740]
160596849000: system.ruby.cp_cntrl0.sequencer: Cache miss at [0x10d9e78, line 0x10d9e40]
160596851000: system.ruby.cp_cntrl0.sequencer: Cache miss at [0x3faa748, line 0x3faa740]
160596853000: system.ruby.cp_cntrl0.sequencer: Cache miss at [0x3faa748, line 0x3faa740]
160596855000: system.ruby.cp_cntrl0.sequencer: Cache miss at [0x3faa740, line 0x3faa740]
160596857000: system.ruby.cp_cntrl0.sequencer: Cache miss at [0x38b08, line 0x38b00]
160596859000: system.ruby.cp_cntrl0.sequencer: Cache miss at [0xfaa3f0, line 0xfaa3c0]
160596861000: system.ruby.cp_cntrl0.sequencer: Cache miss at [0xfaa3f0, line 0xfaa3c0]
160596863000: system.ruby.cp_cntrl0.sequencer: Cache miss at [0xfaa3f8, line 0xfaa3c0]
160596865000: system.ruby.cp_cntrl0.sequencer: Cache miss at [0xf90c20, line 0xf90c00]
160596866000: system.ruby.cp_cntrl1.sequencer: Cache hit at [0x10dbba8, line 0x10dbb80]
160596867000: system.ruby.cp_cntrl0.sequencer: Cache miss at [0xc62610, line 0xc62600]
160596868000: system.ruby.cp_cntrl1.sequencer: Cache miss at [0x138dfa0, line 0x138df80]
160596869000: system.ruby.cp_cntrl0.sequencer: Cache miss at [0x13a9710, line 0x13a9700]
160596870000: system.ruby.cp_cntrl1.sequencer: Cache miss at [0x10d7bd8, line 0x10d7bc0]
160596871000: system.ruby.cp_cntrl0.sequencer: Cache miss at [0x13a9710, line 0x13a9700]
160596872000: system.ruby.cp_cntrl1.sequencer: Cache miss at [0x138dfa0, line 0x138df80]
160596873000: system.ruby.cp_cntrl0.sequencer: Cache miss at [0x13a9718, line 0x13a9700]
160596874000: system.ruby.cp_cntrl1.sequencer: Cache miss at [0x138dfa8, line 0x138df80]
160596875000: system.ruby.cp_cntrl0.sequencer: Cache miss at [0x13a9718, line 0x13a9700]
160596876000: system.ruby.cp_cntrl1.sequencer: Cache miss at [0x138dfa8, line 0x138df80]
160596877000: system.ruby.cp_cntrl0.sequencer: Cache miss at [0x13a9718, line 0x13a9700]
160596878000: system.ruby.cp_cntrl1.sequencer: Cache miss at [0x138dfa8, line 0x138df80]
160596879000: system.ruby.cp_cntrl0.sequencer: Cache miss at [0x13a9720, line 0x13a9700]
160596880000: system.ruby.cp_cntrl1.sequencer: Cache miss at [0x138dfb0, line 0x138df80]
160596881000: system.ruby.cp_cntrl0.sequencer: Cache miss at [0x13a9720, line 0x13a9700]
160596882000: system.ruby.cp_cntrl1.sequencer: Cache miss at [0x138dfb0, line 0x138df80]
160596883000: system.ruby.cp_cntrl0.sequencer: Cache miss at [0x13a9720, line 0x13a9700]
160596884000: system.ruby.cp_cntrl1.sequencer: Cache miss at [0x138dfb0, line 0x138df80]
160596885000: system.ruby.cp_cntrl0.sequencer: Cache miss at [0x38b08, line 0x38b00]
160596886000: system.ruby.cp_cntrl1.sequencer: Cache miss at [0x138dfb8, line 0x138df80]
160596887000: system.ruby.cp_cntrl0.sequencer: Cache miss at [0x3faa740, line 0x3faa740]
160596888000: system.ruby.cp_cntrl1.sequencer: Cache miss at [0x138dfb8, line 0x138df80]
160596889000: system.ruby.cp_cntrl0.sequencer: Cache miss at [0x10d9e78, line 0x10d9e40]
160596890000: system.ruby.cp_cntrl1.sequencer: Cache miss at [0x138dfc0, line 0x138dfc0]
160596891000: system.ruby.cp_cntrl0.sequencer: Cache miss at [0x3faa748, line 0x3faa740]
160596892000: system.ruby.cp_cntrl1.sequencer: Cache miss at [0x138dfc0, line 0x138dfc0]
160596893000: system.ruby.cp_cntrl0.sequencer: Cache miss at [0x3faa748, line 0x3faa740]
160596895000: system.ruby.cp_cntrl0.sequencer: Cache miss at [0x3faa740, line 0x3faa740]
160596897000: system.ruby.cp_cntrl0.sequencer: Cache miss at [0x38b08, line 0x38b00]
160596899000: system.ruby.cp_cntrl0.sequencer: Cache miss at [0xfaa3f0, line 0xfaa3c0]
160596901000: system.ruby.cp_cntrl0.sequencer: Cache miss at [0xfaa3f0, line 0xfaa3c0]
160596903000: system.ruby.cp_cntrl0.sequencer: Cache miss at [0xfaa3f8, line 0xfaa3c0]
160596905000: system.ruby.cp_cntrl0.sequencer: Cache miss at [0xf90c20, line 0xf90c00]
160596907000: system.ruby.cp_cntrl0.sequencer: Cache miss at [0xc62610, line 0xc62600]
160596909000: system.ruby.cp_cntrl0.sequencer: Cache miss at [0x13a9710, line 0x13a9700]
160596911000: system.ruby.cp_cntrl0.sequencer: Cache miss at [0x13a9710, line 0x13a9700]
160596913000: system.ruby.cp_cntrl0.sequencer: Cache miss at [0x13a9718, line 0x13a9700]
160596915000: system.ruby.cp_cntrl0.sequencer: Cache miss at [0x13a9718, line 0x13a9700]
160596917000: system.ruby.cp_cntrl0.sequencer: Cache miss at [0x13a9718, line 0x13a9700]
160596919000: system.ruby.cp_cntrl0.sequencer: Cache miss at [0x13a9720, line 0x13a9700]
160596921000: system.ruby.cp_cntrl0.sequencer: Cache miss at [0x13a9720, line 0x13a9700]
160596923000: system.ruby.cp_cntrl0.sequencer: Cache miss at [0x13a9720, line 0x13a9700]
160596925000: system.ruby.cp_cntrl0.sequencer: Cache miss at [0x38b08, line 0x38b00]
160596927000: system.ruby.cp_cntrl0.sequencer: Cache miss at [0x3faa740, line 0x3faa740]
160596929000: system.ruby.cp_cntrl0.sequencer: Cache miss at [0x10d9e78, line 0x10d9e40]
160596931000: system.ruby.cp_cntrl0.sequencer: Cache miss at [0x3faa748, line 0x3faa740]
160596933000: system.ruby.cp_cntrl0.sequencer: Cache miss at [0x3faa748, line 0x3faa740]
160596935000: system.ruby.cp_cntrl0.sequencer: Cache miss at [0x3faa740, line 0x3faa740]
160596937000: system.ruby.cp_cntrl0.sequencer: Cache miss at [0x38b08, line 0x38b00]
160596939000: system.ruby.cp_cntrl0.sequencer: Cache miss at [0xfaa3f0, line 0xfaa3c0]
160596941000: system.ruby.cp_cntrl0.sequencer: Cache miss at [0xfaa3f0, line 0xfaa3c0]
160596943000: system.ruby.cp_cntrl0.sequencer: Cache miss at [0xfaa3f8, line 0xfaa3c0]
160596945000: system.ruby.cp_cntrl0.sequencer: Cache miss at [0xf90c20, line 0xf90c00]
160596947000: system.ruby.cp_cntrl0.sequencer: Cache miss at [0xc62610, line 0xc62600]
160596949000: system.ruby.cp_cntrl0.sequencer: Cache miss at [0x13a9710, line 0x13a9700]
160596951000: system.ruby.cp_cntrl0.sequencer: Cache miss at [0x13a9710, line 0x13a9700]
160596953000: system.ruby.cp_cntrl0.sequencer: Cache miss at [0x13a9718, line 0x13a9700]
160596955000: system.ruby.cp_cntrl0.sequencer: Cache miss at [0x13a9718, line 0x13a9700]
160596957000: system.ruby.cp_cntrl0.sequencer: Cache miss at [0x13a9718, line 0x13a9700]
160596959000: system.ruby.cp_cntrl0.sequencer: Cache miss at [0x13a9720, line 0x13a9700]
160596961000: system.ruby.cp_cntrl0.sequencer: Cache miss at [0x13a9720, line 0x13a9700]
160596963000: system.ruby.cp_cntrl0.sequencer: Cache miss at [0x13a9720, line 0x13a9700]
160596965000: system.ruby.cp_cntrl0.sequencer: Cache miss at [0x38b08, line 0x38b00]
160596967000: system.ruby.cp_cntrl0.sequencer: Cache miss at [0x3faa740, line 0x3faa740]
160596969000: system.ruby.cp_cntrl0.sequencer: Cache miss at [0x10d9e78, line 0x10d9e40]
160596971000: system.ruby.cp_cntrl0.sequencer: Cache miss at [0x3faa748, line 0x3faa740]
160596973000: system.ruby.cp_cntrl0.sequencer: Cache miss at [0x3faa748, line 0x3faa740]
160596975000: system.ruby.cp_cntrl0.sequencer: Cache miss at [0x3faa740, line 0x3faa740]
160596977000: system.ruby.cp_cntrl0.sequencer: Cache miss at [0x38b08, line 0x38b00]
160596979000: system.ruby.cp_cntrl0.sequencer: Cache miss at [0xfaa3f0, line 0xfaa3c0]
160596981000: system.ruby.cp_cntrl0.sequencer: Cache miss at [0xfaa3f0, line 0xfaa3c0]
160596983000: system.ruby.cp_cntrl0.sequencer: Cache miss at [0xfaa3f8, line 0xfaa3c0]
160596985000: system.ruby.cp_cntrl0.sequencer: Cache miss at [0xf90c20, line 0xf90c00]
160596987000: system.ruby.cp_cntrl0.sequencer: Cache miss at [0xc62610, line 0xc62600]
160596989000: system.ruby.cp_cntrl0.sequencer: Cache miss at [0x13a9710, line 0x13a9700]
160596991000: system.ruby.cp_cntrl0.sequencer: Cache miss at [0x13a9710, line 0x13a9700]
160596993000: system.ruby.cp_cntrl0.sequencer: Cache miss at [0x13a9718, line 0x13a9700]
160596995000: system.ruby.cp_cntrl0.sequencer: Cache miss at [0x13a9718, line 0x13a9700]
160596997000: system.ruby.cp_cntrl0.sequencer: Cache miss at [0x13a9718, line 0x13a9700]
160596999000: system.ruby.cp_cntrl0.sequencer: Cache miss at [0x13a9720, line 0x13a9700]
160597001000: system.ruby.cp_cntrl0.sequencer: Cache miss at [0x13a9720, line 0x13a9700]
160597003000: system.ruby.cp_cntrl0.sequencer: Cache miss at [0x13a9720, line 0x13a9700]
160597005000: system.ruby.cp_cntrl0.sequencer: Cache miss at [0x38b08, line 0x38b00]
160597007000: system.ruby.cp_cntrl0.sequencer: Cache miss at [0x3faa740, line 0x3faa740]
160597009000: system.ruby.cp_cntrl0.sequencer: Cache miss at [0x10d9e78, line 0x10d9e40]
160597011000: system.ruby.cp_cntrl0.sequencer: Cache miss at [0x3faa748, line 0x3faa740]
160597013000: system.ruby.cp_cntrl0.sequencer: Cache miss at [0x3faa748, line 0x3faa740]
160597015000: system.ruby.cp_cntrl0.sequencer: Cache miss at [0x3faa740, line 0x3faa740]
160597017000: system.ruby.cp_cntrl0.sequencer: Cache miss at [0x38b08, line 0x38b00]
160597019000: system.ruby.cp_cntrl0.sequencer: Cache miss at [0xfaa3f0, line 0xfaa3c0]
160597021000: system.ruby.cp_cntrl0.sequencer: Cache miss at [0xfaa3f0, line 0xfaa3c0]
160597023000: system.ruby.cp_cntrl0.sequencer: Cache miss at [0xfaa3f8, line 0xfaa3c0]
160597025000: system.ruby.cp_cntrl0.sequencer: Cache miss at [0xf90c20, line 0xf90c00]
160597027000: system.ruby.cp_cntrl0.sequencer: Cache miss at [0xc62610, line 0xc62600]
160597029000: system.ruby.cp_cntrl0.sequencer: Cache miss at [0x13a9710, line 0x13a9700]
160597031000: system.ruby.cp_cntrl0.sequencer: Cache miss at [0x13a9710, line 0x13a9700]
160597033000: system.ruby.cp_cntrl0.sequencer: Cache miss at [0x13a9718, line 0x13a9700]
160597035000: system.ruby.cp_cntrl0.sequencer: Cache miss at [0x13a9718, line 0x13a9700]
160597037000: system.ruby.cp_cntrl0.sequencer: Cache miss at [0x13a9718, line 0x13a9700]
160597039000: system.ruby.cp_cntrl0.sequencer: Cache miss at [0x13a9720, line 0x13a9700]
160597041000: system.ruby.cp_cntrl0.sequencer: Cache miss at [0x13a9720, line 0x13a9700]
160597043000: system.ruby.cp_cntrl0.sequencer: Cache miss at [0x13a9720, line 0x13a9700]
160597045000: system.ruby.cp_cntrl0.sequencer: Cache miss at [0x38b08, line 0x38b00]
160597047000: system.ruby.cp_cntrl0.sequencer: Cache miss at [0x3faa740, line 0x3faa740]
160597049000: system.ruby.cp_cntrl0.sequencer: Cache miss at [0x10d9e78, line 0x10d9e40]
160597051000: system.ruby.cp_cntrl0.sequencer: Cache miss at [0x3faa748, line 0x3faa740]
160597053000: system.ruby.cp_cntrl0.sequencer: Cache miss at [0x3faa748, line 0x3faa740]
160597055000: system.ruby.cp_cntrl0.sequencer: Cache miss at [0x3faa740, line 0x3faa740]
160597057000: system.ruby.cp_cntrl0.sequencer: Cache miss at [0x38b08, line 0x38b00]
160597059000: system.ruby.cp_cntrl0.sequencer: Cache miss at [0xfaa3f0, line 0xfaa3c0]
160597061000: system.ruby.cp_cntrl0.sequencer: Cache miss at [0xfaa3f0, line 0xfaa3c0]
160597063000: system.ruby.cp_cntrl0.sequencer: Cache miss at [0xfaa3f8, line 0xfaa3c0]
160597065000: system.ruby.cp_cntrl0.sequencer: Cache miss at [0xf90c20, line 0xf90c00]
160597067000: system.ruby.cp_cntrl0.sequencer: Cache miss at [0xc62610, line 0xc62600]
160597069000: system.ruby.cp_cntrl0.sequencer: Cache miss at [0x13a9710, line 0x13a9700]
160597071000: system.ruby.cp_cntrl0.sequencer: Cache miss at [0x13a9710, line 0x13a9700]
160597073000: system.ruby.cp_cntrl0.sequencer: Cache miss at [0x13a9718, line 0x13a9700]
160597075000: system.ruby.cp_cntrl0.sequencer: Cache miss at [0x13a9718, line 0x13a9700]
160597077000: system.ruby.cp_cntrl0.sequencer: Cache miss at [0x13a9718, line 0x13a9700]
160597079000: system.ruby.cp_cntrl0.sequencer: Cache miss at [0x13a9720, line 0x13a9700]
160597081000: system.ruby.cp_cntrl0.sequencer: Cache miss at [0x13a9720, line 0x13a9700]
160597083000: system.ruby.cp_cntrl0.sequencer: Cache miss at [0x13a9720, line 0x13a9700]
160597085000: system.ruby.cp_cntrl0.sequencer: Cache miss at [0x38b08, line 0x38b00]
160597087000: system.ruby.cp_cntrl0.sequencer: Cache miss at [0x3faa740, line 0x3faa740]
160597089000: system.ruby.cp_cntrl0.sequencer: Cache miss at [0x10d9e78, line 0x10d9e40]
160597091000: system.ruby.cp_cntrl0.sequencer: Cache miss at [0x3faa748, line 0x3faa740]
160597093000: system.ruby.cp_cntrl0.sequencer: Cache miss at [0x3faa748, line 0x3faa740]
160597095000: system.ruby.cp_cntrl0.sequencer: Cache miss at [0x3faa740, line 0x3faa740]
160597097000: system.ruby.cp_cntrl0.sequencer: Cache miss at [0x38b08, line 0x38b00]
160597099000: system.ruby.cp_cntrl0.sequencer: Cache miss at [0xfaa3f0, line 0xfaa3c0]
160597101000: system.ruby.cp_cntrl0.sequencer: Cache miss at [0xfaa3f0, line 0xfaa3c0]
160597103000: system.ruby.cp_cntrl0.sequencer: Cache miss at [0xfaa3f8, line 0xfaa3c0]
160597105000: system.ruby.cp_cntrl0.sequencer: Cache miss at [0xf90c20, line 0xf90c00]
160597107000: system.ruby.cp_cntrl0.sequencer: Cache miss at [0xc62610, line 0xc62600]
160597109000: system.ruby.cp_cntrl0.sequencer: Cache miss at [0x13a9710, line 0x13a9700]
160597111000: system.ruby.cp_cntrl0.sequencer: Cache miss at [0x13a9710, line 0x13a9700]
160597113000: system.ruby.cp_cntrl0.sequencer: Cache miss at [0x13a9718, line 0x13a9700]
160597115000: system.ruby.cp_cntrl0.sequencer: Cache miss at [0x13a9718, line 0x13a9700]
160597117000: system.ruby.cp_cntrl0.sequencer: Cache miss at [0x13a9718, line 0x13a9700]
160597119000: system.ruby.cp_cntrl0.sequencer: Cache miss at [0x13a9720, line 0x13a9700]
160597121000: system.ruby.cp_cntrl0.sequencer: Cache miss at [0x13a9720, line 0x13a9700]
160597123000: system.ruby.cp_cntrl0.sequencer: Cache miss at [0x13a9720, line 0x13a9700]
160597125000: system.ruby.cp_cntrl0.sequencer: Cache miss at [0x38b08, line 0x38b00]
160597127000: system.ruby.cp_cntrl0.sequencer: Cache miss at [0x3faa740, line 0x3faa740]
160597129000: system.ruby.cp_cntrl0.sequencer: Cache miss at [0x10d9e78, line 0x10d9e40]
160597131000: system.ruby.cp_cntrl0.sequencer: Cache miss at [0x3faa748, line 0x3faa740]
160597133000: system.ruby.cp_cntrl0.sequencer: Cache miss at [0x3faa748, line 0x3faa740]
160597135000: system.ruby.cp_cntrl0.sequencer: Cache miss at [0x3faa740, line 0x3faa740]
160597137000: system.ruby.cp_cntrl0.sequencer: Cache miss at [0x38b08, line 0x38b00]
160597139000: system.ruby.cp_cntrl0.sequencer: Cache miss at [0xfaa3f0, line 0xfaa3c0]
160597141000: system.ruby.cp_cntrl0.sequencer: Cache miss at [0xfaa3f0, line 0xfaa3c0]
160597143000: system.ruby.cp_cntrl0.sequencer: Cache miss at [0xfaa3f8, line 0xfaa3c0]
160597145000: system.ruby.cp_cntrl0.sequencer: Cache miss at [0xf90c20, line 0xf90c00]
160597147000: system.ruby.cp_cntrl0.sequencer: Cache miss at [0xc62610, line 0xc62600]
160597149000: system.ruby.cp_cntrl0.sequencer: Cache miss at [0x13a9710, line 0x13a9700]
160597151000: system.ruby.cp_cntrl0.sequencer: Cache miss at [0x13a9710, line 0x13a9700]
160597153000: system.ruby.cp_cntrl0.sequencer: Cache miss at [0x13a9718, line 0x13a9700]
160597155000: system.ruby.cp_cntrl0.sequencer: Cache miss at [0x13a9718, line 0x13a9700]
160597157000: system.ruby.cp_cntrl0.sequencer: Cache miss at [0x13a9718, line 0x13a9700]
160597159000: system.ruby.cp_cntrl0.sequencer: Cache miss at [0x13a9720, line 0x13a9700]
160597161000: system.ruby.cp_cntrl0.sequencer: Cache miss at [0x13a9720, line 0x13a9700]
160597163000: system.ruby.cp_cntrl0.sequencer: Cache miss at [0x13a9720, line 0x13a9700]
160597165000: system.ruby.cp_cntrl0.sequencer: Cache miss at [0x38b08, line 0x38b00]
160597167000: system.ruby.cp_cntrl0.sequencer: Cache miss at [0x3faa740, line 0x3faa740]
160597169000: system.ruby.cp_cntrl0.sequencer: Cache miss at [0x10d9e78, line 0x10d9e40]
160597171000: system.ruby.cp_cntrl0.sequencer: Cache miss at [0x3faa748, line 0x3faa740]
160597173000: system.ruby.cp_cntrl0.sequencer: Cache miss at [0x3faa748, line 0x3faa740]
160597175000: system.ruby.cp_cntrl0.sequencer: Cache miss at [0x3faa740, line 0x3faa740]
160597177000: system.ruby.cp_cntrl0.sequencer: Cache miss at [0x38b08, line 0x38b00]
160597179000: system.ruby.cp_cntrl0.sequencer: Cache miss at [0xfaa3f0, line 0xfaa3c0]
160597181000: system.ruby.cp_cntrl0.sequencer: Cache miss at [0xfaa3f0, line 0xfaa3c0]
160597183000: system.ruby.cp_cntrl0.sequencer: Cache miss at [0xfaa3f8, line 0xfaa3c0]
160597185000: system.ruby.cp_cntrl0.sequencer: Cache miss at [0xf90c20, line 0xf90c00]
160597187000: system.ruby.cp_cntrl0.sequencer: Cache miss at [0xc62610, line 0xc62600]
160597189000: system.ruby.cp_cntrl0.sequencer: Cache miss at [0x13a9710, line 0x13a9700]
160597191000: system.ruby.cp_cntrl0.sequencer: Cache miss at [0x13a9710, line 0x13a9700]
160597193000: system.ruby.cp_cntrl0.sequencer: Cache miss at [0x13a9718, line 0x13a9700]
160597195000: system.ruby.cp_cntrl0.sequencer: Cache miss at [0x13a9718, line 0x13a9700]
160597197000: system.ruby.cp_cntrl0.sequencer: Cache miss at [0x13a9718, line 0x13a9700]
160597199000: system.ruby.cp_cntrl0.sequencer: Cache miss at [0x13a9720, line 0x13a9700]
160597201000: system.ruby.cp_cntrl0.sequencer: Cache miss at [0x13a9720, line 0x13a9700]
160597203000: system.ruby.cp_cntrl0.sequencer: Cache miss at [0x13a9720, line 0x13a9700]
160597205000: system.ruby.cp_cntrl0.sequencer: Cache miss at [0x38b08, line 0x38b00]
160597207000: system.ruby.cp_cntrl0.sequencer: Cache miss at [0x3faa740, line 0x3faa740]
160597209000: system.ruby.cp_cntrl0.sequencer: Cache miss at [0x10d9e78, line 0x10d9e40]
160597211000: system.ruby.cp_cntrl1.sequencer: Cache hit at [0x10dddc0, line 0x10dddc0]
160597211000: system.ruby.cp_cntrl0.sequencer: Cache miss at [0x3faa748, line 0x3faa740]
160597213000: system.ruby.cp_cntrl0.sequencer: Cache miss at [0x3faa748, line 0x3faa740]
160597213000: system.ruby.cp_cntrl1.sequencer: Cache miss at [0x138dfc0, line 0x138dfc0]
160597215000: system.ruby.cp_cntrl1.sequencer: Cache miss at [0x138dfc8, line 0x138dfc0]
160597215000: system.ruby.cp_cntrl0.sequencer: Cache miss at [0x3faa740, line 0x3faa740]
160597217000: system.ruby.cp_cntrl0.sequencer: Cache miss at [0x38b08, line 0x38b00]
160597217000: system.ruby.cp_cntrl1.sequencer: Cache miss at [0x138dfc8, line 0x138dfc0]
160597219000: system.ruby.cp_cntrl0.sequencer: Cache miss at [0xfaa3f0, line 0xfaa3c0]
160597221000: system.ruby.cp_cntrl0.sequencer: Cache miss at [0xfaa3f0, line 0xfaa3c0]
160597223000: system.ruby.cp_cntrl0.sequencer: Cache miss at [0xfaa3f8, line 0xfaa3c0]
160597225000: system.ruby.cp_cntrl0.sequencer: Cache miss at [0xf90c20, line 0xf90c00]
160597227000: system.ruby.cp_cntrl0.sequencer: Cache miss at [0xc62610, line 0xc62600]
160597229000: system.ruby.cp_cntrl0.sequencer: Cache miss at [0x13a9710, line 0x13a9700]
160597231000: system.ruby.cp_cntrl0.sequencer: Cache miss at [0x13a9710, line 0x13a9700]
160597233000: system.ruby.cp_cntrl0.sequencer: Cache miss at [0x13a9718, line 0x13a9700]
160597235000: system.ruby.cp_cntrl0.sequencer: Cache miss at [0x13a9718, line 0x13a9700]
160597237000: system.ruby.cp_cntrl0.sequencer: Cache miss at [0x13a9718, line 0x13a9700]
160597239000: system.ruby.cp_cntrl0.sequencer: Cache miss at [0x13a9720, line 0x13a9700]
160597241000: system.ruby.cp_cntrl0.sequencer: Cache miss at [0x13a9720, line 0x13a9700]
160597243000: system.ruby.cp_cntrl0.sequencer: Cache miss at [0x13a9720, line 0x13a9700]
160597245000: system.ruby.cp_cntrl0.sequencer: Cache miss at [0x38b08, line 0x38b00]
160597247000: system.ruby.cp_cntrl0.sequencer: Cache miss at [0x3faa740, line 0x3faa740]
160597249000: system.ruby.cp_cntrl0.sequencer: Cache miss at [0x10d9e78, line 0x10d9e40]
160597251000: system.ruby.cp_cntrl0.sequencer: Cache miss at [0x3faa748, line 0x3faa740]
160597253000: system.ruby.cp_cntrl0.sequencer: Cache miss at [0x3faa748, line 0x3faa740]
160597255000: system.ruby.cp_cntrl0.sequencer: Cache miss at [0x3faa740, line 0x3faa740]
160597257000: system.ruby.cp_cntrl0.sequencer: Cache miss at [0x38b08, line 0x38b00]
160597259000: system.ruby.cp_cntrl0.sequencer: Cache miss at [0xfaa3f0, line 0xfaa3c0]
160597261000: system.ruby.cp_cntrl0.sequencer: Cache miss at [0xfaa3f0, line 0xfaa3c0]
160597263000: system.ruby.cp_cntrl0.sequencer: Cache miss at [0xfaa3f8, line 0xfaa3c0]
160597263090: system.ruby.sqc_cntrl0.sequencer: Cache hit at [0x401f000, line 0x401f000]
160597265000: system.ruby.cp_cntrl0.sequencer: Cache miss at [0xf90c20, line 0xf90c00]
160597267000: system.ruby.cp_cntrl0.sequencer: Cache miss at [0xc62610, line 0xc62600]
160597269000: system.ruby.cp_cntrl0.sequencer: Cache miss at [0x13a9710, line 0x13a9700]
160597271000: system.ruby.cp_cntrl0.sequencer: Cache miss at [0x13a9710, line 0x13a9700]
160597273000: system.ruby.cp_cntrl0.sequencer: Cache miss at [0x13a9718, line 0x13a9700]
160597275000: system.ruby.cp_cntrl0.sequencer: Cache miss at [0x13a9718, line 0x13a9700]
160597277000: system.ruby.cp_cntrl0.sequencer: Cache miss at [0x13a9718, line 0x13a9700]
160597279000: system.ruby.cp_cntrl0.sequencer: Cache miss at [0x13a9720, line 0x13a9700]
160597281000: system.ruby.cp_cntrl0.sequencer: Cache miss at [0x13a9720, line 0x13a9700]
160597283000: system.ruby.cp_cntrl0.sequencer: Cache miss at [0x13a9720, line 0x13a9700]
160597285000: system.ruby.cp_cntrl0.sequencer: Cache miss at [0x38b08, line 0x38b00]
160597287000: system.ruby.cp_cntrl0.sequencer: Cache miss at [0x3faa740, line 0x3faa740]
160597289000: system.ruby.cp_cntrl0.sequencer: Cache miss at [0x10d9e78, line 0x10d9e40]
160597291000: system.ruby.cp_cntrl0.sequencer: Cache miss at [0x3faa748, line 0x3faa740]
160597293000: system.ruby.cp_cntrl0.sequencer: Cache miss at [0x3faa748, line 0x3faa740]
160597295000: system.ruby.cp_cntrl0.sequencer: Cache miss at [0x3faa740, line 0x3faa740]
160597297000: system.ruby.cp_cntrl0.sequencer: Cache miss at [0x38b08, line 0x38b00]
160597299000: system.ruby.cp_cntrl0.sequencer: Cache miss at [0xfaa3f0, line 0xfaa3c0]
160597301000: system.ruby.cp_cntrl0.sequencer: Cache miss at [0xfaa3f0, line 0xfaa3c0]
160597303000: system.ruby.cp_cntrl0.sequencer: Cache miss at [0xfaa3f8, line 0xfaa3c0]
160597305000: system.ruby.cp_cntrl0.sequencer: Cache miss at [0xf90c20, line 0xf90c00]
160597307000: system.ruby.cp_cntrl0.sequencer: Cache miss at [0xc62610, line 0xc62600]
160597309000: system.ruby.cp_cntrl0.sequencer: Cache miss at [0x13a9710, line 0x13a9700]
160597311000: system.ruby.cp_cntrl0.sequencer: Cache miss at [0x13a9710, line 0x13a9700]
160597313000: system.ruby.cp_cntrl0.sequencer: Cache miss at [0x13a9718, line 0x13a9700]
160597315000: system.ruby.cp_cntrl0.sequencer: Cache miss at [0x13a9718, line 0x13a9700]
160597317000: system.ruby.cp_cntrl0.sequencer: Cache miss at [0x13a9718, line 0x13a9700]
160597319000: system.ruby.cp_cntrl0.sequencer: Cache miss at [0x13a9720, line 0x13a9700]
160597321000: system.ruby.cp_cntrl0.sequencer: Cache miss at [0x13a9720, line 0x13a9700]
160597323000: system.ruby.cp_cntrl0.sequencer: Cache miss at [0x13a9720, line 0x13a9700]
160597325000: system.ruby.cp_cntrl0.sequencer: Cache miss at [0x38b08, line 0x38b00]
160597327000: system.ruby.cp_cntrl0.sequencer: Cache miss at [0x3faa740, line 0x3faa740]
160597329000: system.ruby.cp_cntrl0.sequencer: Cache miss at [0x10d9e78, line 0x10d9e40]
160597331000: system.ruby.cp_cntrl0.sequencer: Cache miss at [0x3faa748, line 0x3faa740]
160597333000: system.ruby.cp_cntrl0.sequencer: Cache miss at [0x3faa748, line 0x3faa740]
160597335000: system.ruby.cp_cntrl0.sequencer: Cache miss at [0x3faa740, line 0x3faa740]
160597337000: system.ruby.cp_cntrl0.sequencer: Cache miss at [0x38b08, line 0x38b00]
160597339000: system.ruby.cp_cntrl0.sequencer: Cache miss at [0xfaa3f0, line 0xfaa3c0]
160597341000: system.ruby.cp_cntrl0.sequencer: Cache miss at [0xfaa3f0, line 0xfaa3c0]
160597343000: system.ruby.cp_cntrl0.sequencer: Cache miss at [0xfaa3f8, line 0xfaa3c0]
160597345000: system.ruby.cp_cntrl0.sequencer: Cache miss at [0xf90c20, line 0xf90c00]
160597347000: system.ruby.cp_cntrl0.sequencer: Cache miss at [0xc62610, line 0xc62600]
160597349000: system.ruby.cp_cntrl0.sequencer: Cache miss at [0x13a9710, line 0x13a9700]
160597351000: system.ruby.cp_cntrl0.sequencer: Cache miss at [0x13a9710, line 0x13a9700]
160597353000: system.ruby.cp_cntrl0.sequencer: Cache miss at [0x13a9718, line 0x13a9700]
160597355000: system.ruby.cp_cntrl0.sequencer: Cache miss at [0x13a9718, line 0x13a9700]
160597357000: system.ruby.cp_cntrl0.sequencer: Cache miss at [0x13a9718, line 0x13a9700]
160597359000: system.ruby.cp_cntrl0.sequencer: Cache miss at [0x13a9720, line 0x13a9700]
160597361000: system.ruby.cp_cntrl0.sequencer: Cache miss at [0x13a9720, line 0x13a9700]
160597363000: system.ruby.cp_cntrl0.sequencer: Cache miss at [0x13a9720, line 0x13a9700]
160597365000: system.ruby.cp_cntrl0.sequencer: Cache miss at [0x38b08, line 0x38b00]
160597367000: system.ruby.cp_cntrl0.sequencer: Cache miss at [0x3faa740, line 0x3faa740]
160597369000: system.ruby.cp_cntrl0.sequencer: Cache miss at [0x10d9e78, line 0x10d9e40]
160597371000: system.ruby.cp_cntrl0.sequencer: Cache miss at [0x3faa748, line 0x3faa740]
160597373000: system.ruby.cp_cntrl0.sequencer: Cache miss at [0x3faa748, line 0x3faa740]
160597375000: system.ruby.cp_cntrl0.sequencer: Cache miss at [0x3faa740, line 0x3faa740]
160597377000: system.ruby.cp_cntrl0.sequencer: Cache miss at [0x38b08, line 0x38b00]
160597379000: system.ruby.cp_cntrl0.sequencer: Cache miss at [0xfaa3f0, line 0xfaa3c0]
160597381000: system.ruby.cp_cntrl0.sequencer: Cache miss at [0xfaa3f0, line 0xfaa3c0]
160597383000: system.ruby.cp_cntrl0.sequencer: Cache miss at [0xfaa3f8, line 0xfaa3c0]
160597385000: system.ruby.cp_cntrl0.sequencer: Cache miss at [0xf90c20, line 0xf90c00]
160597387000: system.ruby.cp_cntrl0.sequencer: Cache miss at [0xc62610, line 0xc62600]
160597389000: system.ruby.cp_cntrl0.sequencer: Cache miss at [0x13a9710, line 0x13a9700]
160597391000: system.ruby.cp_cntrl0.sequencer: Cache miss at [0x13a9710, line 0x13a9700]
160597393000: system.ruby.cp_cntrl0.sequencer: Cache miss at [0x13a9718, line 0x13a9700]
160597395000: system.ruby.cp_cntrl0.sequencer: Cache miss at [0x13a9718, line 0x13a9700]
160597397000: system.ruby.cp_cntrl0.sequencer: Cache miss at [0x13a9718, line 0x13a9700]
160597399000: system.ruby.cp_cntrl0.sequencer: Cache miss at [0x13a9720, line 0x13a9700]
160597401000: system.ruby.cp_cntrl0.sequencer: Cache miss at [0x13a9720, line 0x13a9700]
160597403000: system.ruby.cp_cntrl0.sequencer: Cache miss at [0x13a9720, line 0x13a9700]
160597405000: system.ruby.cp_cntrl0.sequencer: Cache miss at [0x38b08, line 0x38b00]
160597407000: system.ruby.cp_cntrl0.sequencer: Cache miss at [0x3faa740, line 0x3faa740]
160597409000: system.ruby.cp_cntrl0.sequencer: Cache miss at [0x10d9e78, line 0x10d9e40]
160597411000: system.ruby.cp_cntrl0.sequencer: Cache miss at [0x3faa748, line 0x3faa740]
160597413000: system.ruby.cp_cntrl0.sequencer: Cache miss at [0x3faa748, line 0x3faa740]
160597415000: system.ruby.cp_cntrl0.sequencer: Cache miss at [0x3faa740, line 0x3faa740]
160597417000: system.ruby.cp_cntrl0.sequencer: Cache miss at [0x38b08, line 0x38b00]
160597419000: system.ruby.cp_cntrl0.sequencer: Cache miss at [0xfaa3f0, line 0xfaa3c0]
160597421000: system.ruby.cp_cntrl0.sequencer: Cache miss at [0xfaa3f0, line 0xfaa3c0]
160597423000: system.ruby.cp_cntrl0.sequencer: Cache miss at [0xfaa3f8, line 0xfaa3c0]
160597425000: system.ruby.cp_cntrl0.sequencer: Cache miss at [0xf90c20, line 0xf90c00]
160597427000: system.ruby.cp_cntrl0.sequencer: Cache miss at [0xc62610, line 0xc62600]
160597429000: system.ruby.cp_cntrl0.sequencer: Cache miss at [0x13a9710, line 0x13a9700]
160597431000: system.ruby.cp_cntrl0.sequencer: Cache miss at [0x13a9710, line 0x13a9700]
160597433000: system.ruby.cp_cntrl0.sequencer: Cache miss at [0x13a9718, line 0x13a9700]
160597435000: system.ruby.cp_cntrl0.sequencer: Cache miss at [0x13a9718, line 0x13a9700]
160597437000: system.ruby.cp_cntrl0.sequencer: Cache miss at [0x13a9718, line 0x13a9700]
160597439000: system.ruby.cp_cntrl0.sequencer: Cache miss at [0x13a9720, line 0x13a9700]
160597441000: system.ruby.cp_cntrl0.sequencer: Cache miss at [0x13a9720, line 0x13a9700]
160597443000: system.ruby.cp_cntrl0.sequencer: Cache miss at [0x13a9720, line 0x13a9700]
160597445000: system.ruby.cp_cntrl0.sequencer: Cache miss at [0x38b08, line 0x38b00]
160597447000: system.ruby.cp_cntrl0.sequencer: Cache miss at [0x3faa740, line 0x3faa740]
160597449000: system.ruby.cp_cntrl0.sequencer: Cache miss at [0x10d9e78, line 0x10d9e40]
160597451000: system.ruby.cp_cntrl0.sequencer: Cache miss at [0x3faa748, line 0x3faa740]
160597453000: system.ruby.cp_cntrl0.sequencer: Cache miss at [0x3faa748, line 0x3faa740]
160597455000: system.ruby.cp_cntrl0.sequencer: Cache miss at [0x3faa740, line 0x3faa740]
160597457000: system.ruby.cp_cntrl0.sequencer: Cache miss at [0x38b08, line 0x38b00]
160597459000: system.ruby.cp_cntrl0.sequencer: Cache miss at [0xfaa3f0, line 0xfaa3c0]
160597461000: system.ruby.cp_cntrl0.sequencer: Cache miss at [0xfaa3f0, line 0xfaa3c0]
160597463000: system.ruby.cp_cntrl0.sequencer: Cache miss at [0xfaa3f8, line 0xfaa3c0]
160597465000: system.ruby.cp_cntrl0.sequencer: Cache miss at [0xf90c20, line 0xf90c00]
160597467000: system.ruby.cp_cntrl0.sequencer: Cache miss at [0xc62610, line 0xc62600]
160597469000: system.ruby.cp_cntrl0.sequencer: Cache miss at [0x13a9710, line 0x13a9700]
160597471000: system.ruby.cp_cntrl0.sequencer: Cache miss at [0x13a9710, line 0x13a9700]
160597473000: system.ruby.cp_cntrl0.sequencer: Cache miss at [0x13a9718, line 0x13a9700]
160597475000: system.ruby.cp_cntrl0.sequencer: Cache miss at [0x13a9718, line 0x13a9700]
160597477000: system.ruby.cp_cntrl0.sequencer: Cache miss at [0x13a9718, line 0x13a9700]
160597479000: system.ruby.cp_cntrl0.sequencer: Cache miss at [0x13a9720, line 0x13a9700]
160597481000: system.ruby.cp_cntrl0.sequencer: Cache miss at [0x13a9720, line 0x13a9700]
160597483000: system.ruby.cp_cntrl0.sequencer: Cache miss at [0x13a9720, line 0x13a9700]
160597485000: system.ruby.cp_cntrl0.sequencer: Cache miss at [0x38b08, line 0x38b00]
160597487000: system.ruby.cp_cntrl0.sequencer: Cache miss at [0x3faa740, line 0x3faa740]
160597489000: system.ruby.cp_cntrl0.sequencer: Cache miss at [0x10d9e78, line 0x10d9e40]
160597491000: system.ruby.cp_cntrl0.sequencer: Cache miss at [0x3faa748, line 0x3faa740]
160597493000: system.ruby.cp_cntrl0.sequencer: Cache miss at [0x3faa748, line 0x3faa740]
160597495000: system.ruby.cp_cntrl0.sequencer: Cache miss at [0x3faa740, line 0x3faa740]
160597497000: system.ruby.cp_cntrl0.sequencer: Cache miss at [0x38b08, line 0x38b00]
160597499000: system.ruby.cp_cntrl0.sequencer: Cache miss at [0xfaa3f0, line 0xfaa3c0]
160597501000: system.ruby.cp_cntrl0.sequencer: Cache miss at [0xfaa3f0, line 0xfaa3c0]
160597503000: system.ruby.cp_cntrl0.sequencer: Cache miss at [0xfaa3f8, line 0xfaa3c0]
160597505000: system.ruby.cp_cntrl0.sequencer: Cache miss at [0xf90c20, line 0xf90c00]
160597507000: system.ruby.cp_cntrl0.sequencer: Cache miss at [0xc62610, line 0xc62600]
160597509000: system.ruby.cp_cntrl0.sequencer: Cache miss at [0x13a9710, line 0x13a9700]
160597511000: system.ruby.cp_cntrl0.sequencer: Cache miss at [0x13a9710, line 0x13a9700]
160597513000: system.ruby.cp_cntrl0.sequencer: Cache miss at [0x13a9718, line 0x13a9700]
160597515000: system.ruby.cp_cntrl0.sequencer: Cache miss at [0x13a9718, line 0x13a9700]
160597517000: system.ruby.cp_cntrl0.sequencer: Cache miss at [0x13a9718, line 0x13a9700]
160597519000: system.ruby.cp_cntrl0.sequencer: Cache miss at [0x13a9720, line 0x13a9700]
160597521000: system.ruby.cp_cntrl0.sequencer: Cache miss at [0x13a9720, line 0x13a9700]
160597523000: system.ruby.cp_cntrl0.sequencer: Cache miss at [0x13a9720, line 0x13a9700]
160597525000: system.ruby.cp_cntrl0.sequencer: Cache miss at [0x38b08, line 0x38b00]
160597527000: system.ruby.cp_cntrl0.sequencer: Cache miss at [0x3faa740, line 0x3faa740]
160597529000: system.ruby.cp_cntrl0.sequencer: Cache miss at [0x10d9e78, line 0x10d9e40]
160597531000: system.ruby.cp_cntrl0.sequencer: Cache miss at [0x3faa748, line 0x3faa740]
160597533000: system.ruby.cp_cntrl0.sequencer: Cache miss at [0x3faa748, line 0x3faa740]
160597535000: system.ruby.cp_cntrl0.sequencer: Cache miss at [0x3faa740, line 0x3faa740]
160597536000: system.ruby.cp_cntrl1.sequencer: Cache hit at [0x10d7bd8, line 0x10d7bc0]
160597537000: system.ruby.cp_cntrl0.sequencer: Cache miss at [0x38b08, line 0x38b00]
160597538000: system.ruby.cp_cntrl1.sequencer: Cache miss at [0x10d7bd8, line 0x10d7bc0]
160597539000: system.ruby.cp_cntrl0.sequencer: Cache miss at [0xfaa3f0, line 0xfaa3c0]
160597540000: system.ruby.cp_cntrl1.sequencer: Cache miss at [0x138dfd0, line 0x138dfc0]
160597541000: system.ruby.cp_cntrl0.sequencer: Cache miss at [0xfaa3f0, line 0xfaa3c0]
160597542000: system.ruby.cp_cntrl1.sequencer: Cache miss at [0x138dfd0, line 0x138dfc0]
160597543000: system.ruby.cp_cntrl0.sequencer: Cache miss at [0xfaa3f8, line 0xfaa3c0]
160597544000: system.ruby.cp_cntrl1.sequencer: Cache miss at [0x138dfd0, line 0x138dfc0]
160597545000: system.ruby.cp_cntrl0.sequencer: Cache miss at [0xf90c20, line 0xf90c00]
160597546000: system.ruby.cp_cntrl1.sequencer: Cache miss at [0x138dfd8, line 0x138dfc0]
160597547000: system.ruby.cp_cntrl0.sequencer: Cache miss at [0xc62610, line 0xc62600]
160597548000: system.ruby.cp_cntrl1.sequencer: Cache miss at [0x138dfd8, line 0x138dfc0]
160597549000: system.ruby.cp_cntrl0.sequencer: Cache miss at [0x13a9710, line 0x13a9700]
160597550000: system.ruby.cp_cntrl1.sequencer: Cache miss at [0x139ec68, line 0x139ec40]
160597551000: system.ruby.cp_cntrl0.sequencer: Cache miss at [0x13a9710, line 0x13a9700]
160597552000: system.ruby.cp_cntrl1.sequencer: Cache miss at [0xf9b290, line 0xf9b280]
160597553000: system.ruby.cp_cntrl0.sequencer: Cache miss at [0x13a9718, line 0x13a9700]
160597554000: system.ruby.cp_cntrl1.sequencer: Cache miss at [0xf9b290, line 0xf9b280]
160597555000: system.ruby.cp_cntrl0.sequencer: Cache miss at [0x13a9718, line 0x13a9700]
160597556000: system.ruby.cp_cntrl1.sequencer: Cache miss at [0xf9b298, line 0xf9b280]
160597557000: system.ruby.cp_cntrl0.sequencer: Cache miss at [0x13a9718, line 0x13a9700]
160597559000: system.ruby.cp_cntrl0.sequencer: Cache miss at [0x13a9720, line 0x13a9700]
160597561000: system.ruby.cp_cntrl0.sequencer: Cache miss at [0x13a9720, line 0x13a9700]
160597563000: system.ruby.cp_cntrl0.sequencer: Cache miss at [0x13a9720, line 0x13a9700]
160597565000: system.ruby.cp_cntrl0.sequencer: Cache miss at [0x38b08, line 0x38b00]
160597567000: system.ruby.cp_cntrl0.sequencer: Cache miss at [0x3faa740, line 0x3faa740]
160597569000: system.ruby.cp_cntrl0.sequencer: Cache miss at [0x10d9e78, line 0x10d9e40]
160597571000: system.ruby.cp_cntrl0.sequencer: Cache miss at [0x3faa748, line 0x3faa740]
160597573000: system.ruby.cp_cntrl0.sequencer: Cache miss at [0x3faa748, line 0x3faa740]
160597575000: system.ruby.cp_cntrl0.sequencer: Cache miss at [0x3faa740, line 0x3faa740]
160597576000: system.ruby.cp_cntrl1.sequencer: Cache miss at [0xfaa0d0, line 0xfaa0c0]
160597577000: system.ruby.cp_cntrl0.sequencer: Cache miss at [0x38b08, line 0x38b00]
160597578000: system.ruby.cp_cntrl1.sequencer: Cache miss at [0xfaa0d0, line 0xfaa0c0]
160597579000: system.ruby.cp_cntrl0.sequencer: Cache miss at [0xfaa3f0, line 0xfaa3c0]
160597580000: system.ruby.cp_cntrl1.sequencer: Cache miss at [0xfaa0d8, line 0xfaa0c0]
160597581000: system.ruby.cp_cntrl0.sequencer: Cache miss at [0xfaa3f0, line 0xfaa3c0]
160597582000: system.ruby.cp_cntrl1.sequencer: Cache miss at [0xfa80a0, line 0xfa8080]
160597583000: system.ruby.cp_cntrl0.sequencer: Cache miss at [0xfaa3f8, line 0xfaa3c0]
160597584000: system.ruby.cp_cntrl1.sequencer: Cache miss at [0x4aea0, line 0x4ae80]
160597585000: system.ruby.cp_cntrl0.sequencer: Cache miss at [0xf90c20, line 0xf90c00]
160597586000: system.ruby.cp_cntrl1.sequencer: Cache miss at [0xc906d0, line 0xc906c0]
160597587000: system.ruby.cp_cntrl0.sequencer: Cache miss at [0xc62610, line 0xc62600]
160597588000: system.ruby.cp_cntrl1.sequencer: Cache miss at [0xc906d0, line 0xc906c0]
160597589000: system.ruby.cp_cntrl0.sequencer: Cache miss at [0x13a9710, line 0x13a9700]
160597590000: system.ruby.cp_cntrl1.sequencer: Cache miss at [0xc906d8, line 0xc906c0]
160597591000: system.ruby.cp_cntrl0.sequencer: Cache miss at [0x13a9710, line 0x13a9700]
160597592000: system.ruby.cp_cntrl1.sequencer: Cache miss at [0x53ef8, line 0x53ec0]
160597593000: system.ruby.cp_cntrl0.sequencer: Cache miss at [0x13a9718, line 0x13a9700]
160597594000: system.ruby.cp_cntrl1.sequencer: Cache miss at [0xc906d8, line 0xc906c0]
160597595000: system.ruby.cp_cntrl0.sequencer: Cache miss at [0x13a9718, line 0x13a9700]
160597596000: system.ruby.cp_cntrl1.sequencer: Cache miss at [0xc906e0, line 0xc906c0]
160597597000: system.ruby.cp_cntrl0.sequencer: Cache miss at [0x13a9718, line 0x13a9700]
160597598000: system.ruby.cp_cntrl1.sequencer: Cache miss at [0xc84e48, line 0xc84e40]
160597599000: system.ruby.cp_cntrl0.sequencer: Cache miss at [0x13a9720, line 0x13a9700]
160597600000: system.ruby.cp_cntrl1.sequencer: Cache miss at [0xc906e0, line 0xc906c0]
160597601000: system.ruby.cp_cntrl0.sequencer: Cache miss at [0x13a9720, line 0x13a9700]
160597602000: system.ruby.cp_cntrl1.sequencer: Cache miss at [0xc906e0, line 0xc906c0]
160597603000: system.ruby.cp_cntrl0.sequencer: Cache miss at [0x13a9720, line 0x13a9700]
160597604000: system.ruby.cp_cntrl1.sequencer: Cache miss at [0xc906e8, line 0xc906c0]
160597605000: system.ruby.cp_cntrl0.sequencer: Cache miss at [0x38b08, line 0x38b00]
160597606000: system.ruby.cp_cntrl1.sequencer: Cache miss at [0xc906e8, line 0xc906c0]
160597607000: system.ruby.cp_cntrl0.sequencer: Cache miss at [0x3faa740, line 0x3faa740]
160597608000: system.ruby.cp_cntrl1.sequencer: Cache miss at [0xc906e8, line 0xc906c0]
160597609000: system.ruby.cp_cntrl0.sequencer: Cache miss at [0x10d9e78, line 0x10d9e40]
160597610000: system.ruby.cp_cntrl1.sequencer: Cache miss at [0xc906f0, line 0xc906c0]
160597611000: system.ruby.cp_cntrl0.sequencer: Cache miss at [0x3faa748, line 0x3faa740]
160597612000: system.ruby.cp_cntrl1.sequencer: Cache miss at [0x10dbb98, line 0x10dbb80]
160597613000: system.ruby.cp_cntrl0.sequencer: Cache miss at [0x3faa748, line 0x3faa740]
160597614000: system.ruby.cp_cntrl1.sequencer: Cache miss at [0xc906f0, line 0xc906c0]
160597615000: system.ruby.cp_cntrl0.sequencer: Cache miss at [0x3faa740, line 0x3faa740]
160597616000: system.ruby.cp_cntrl1.sequencer: Cache miss at [0xc906f8, line 0xc906c0]
160597617000: system.ruby.cp_cntrl0.sequencer: Cache miss at [0x38b08, line 0x38b00]
160597618000: system.ruby.cp_cntrl1.sequencer: Cache miss at [0xc906f8, line 0xc906c0]
160597619000: system.ruby.cp_cntrl0.sequencer: Cache miss at [0xfaa3f0, line 0xfaa3c0]
160597620000: system.ruby.cp_cntrl1.sequencer: Cache miss at [0xc906f8, line 0xc906c0]
160597621000: system.ruby.cp_cntrl0.sequencer: Cache miss at [0xfaa3f0, line 0xfaa3c0]
160597622000: system.ruby.cp_cntrl1.sequencer: Cache miss at [0xc90700, line 0xc90700]
160597623000: system.ruby.cp_cntrl0.sequencer: Cache miss at [0xfaa3f8, line 0xfaa3c0]
160597624000: system.ruby.cp_cntrl1.sequencer: Cache miss at [0x53d78, line 0x53d40]
160597625000: system.ruby.cp_cntrl0.sequencer: Cache miss at [0xf90c20, line 0xf90c00]
160597626000: system.ruby.cp_cntrl1.sequencer: Cache miss at [0xc90700, line 0xc90700]
160597627000: system.ruby.cp_cntrl0.sequencer: Cache miss at [0xc62610, line 0xc62600]
160597628000: system.ruby.cp_cntrl1.sequencer: Cache miss at [0x139d5c0, line 0x139d5c0]
160597629000: system.ruby.cp_cntrl0.sequencer: Cache miss at [0x13a9710, line 0x13a9700]
160597630000: system.ruby.cp_cntrl1.sequencer: Cache miss at [0xc90708, line 0xc90700]
160597631000: system.ruby.cp_cntrl0.sequencer: Cache miss at [0x13a9710, line 0x13a9700]
160597632000: system.ruby.cp_cntrl1.sequencer: Cache miss at [0xc90708, line 0xc90700]
160597633000: system.ruby.cp_cntrl0.sequencer: Cache miss at [0x13a9718, line 0x13a9700]
160597634000: system.ruby.cp_cntrl1.sequencer: Cache miss at [0xc90710, line 0xc90700]
160597635000: system.ruby.cp_cntrl0.sequencer: Cache miss at [0x13a9718, line 0x13a9700]
160597636000: system.ruby.cp_cntrl1.sequencer: Cache miss at [0xc90710, line 0xc90700]
160597637000: system.ruby.cp_cntrl0.sequencer: Cache miss at [0x13a9718, line 0x13a9700]
160597638000: system.ruby.cp_cntrl1.sequencer: Cache miss at [0xc90710, line 0xc90700]
160597639000: system.ruby.cp_cntrl0.sequencer: Cache miss at [0x13a9720, line 0x13a9700]
160597640000: system.ruby.cp_cntrl1.sequencer: Cache miss at [0xc90718, line 0xc90700]
160597641000: system.ruby.cp_cntrl0.sequencer: Cache miss at [0x13a9720, line 0x13a9700]
160597642000: system.ruby.cp_cntrl1.sequencer: Cache miss at [0xc90720, line 0xc90700]
160597643000: system.ruby.cp_cntrl0.sequencer: Cache miss at [0x13a9720, line 0x13a9700]
160597644000: system.ruby.cp_cntrl1.sequencer: Cache miss at [0xc90720, line 0xc90700]
160597645000: system.ruby.cp_cntrl0.sequencer: Cache miss at [0x38b08, line 0x38b00]
160597646000: system.ruby.cp_cntrl1.sequencer: Cache miss at [0xc90728, line 0xc90700]
160597647000: system.ruby.cp_cntrl0.sequencer: Cache miss at [0x3faa740, line 0x3faa740]
160597648000: system.ruby.cp_cntrl1.sequencer: Cache miss at [0xc90728, line 0xc90700]
160597649000: system.ruby.cp_cntrl0.sequencer: Cache miss at [0x10d9e78, line 0x10d9e40]
160597650000: system.ruby.cp_cntrl1.sequencer: Cache miss at [0xca2840, line 0xca2840]
160597651000: system.ruby.cp_cntrl0.sequencer: Cache miss at [0x3faa748, line 0x3faa740]
160597652000: system.ruby.cp_cntrl1.sequencer: Cache miss at [0x139ec60, line 0x139ec40]
160597653000: system.ruby.cp_cntrl0.sequencer: Cache miss at [0x3faa748, line 0x3faa740]
160597654000: system.ruby.cp_cntrl1.sequencer: Cache miss at [0xca2840, line 0xca2840]
160597655000: system.ruby.cp_cntrl0.sequencer: Cache miss at [0x3faa740, line 0x3faa740]
160597656000: system.ruby.cp_cntrl1.sequencer: Cache miss at [0x139ec58, line 0x139ec40]
160597657000: system.ruby.cp_cntrl0.sequencer: Cache miss at [0x38b08, line 0x38b00]
160597658000: system.ruby.cp_cntrl1.sequencer: Cache miss at [0xca2840, line 0xca2840]
160597659000: system.ruby.cp_cntrl0.sequencer: Cache miss at [0xfaa3f0, line 0xfaa3c0]
160597660000: system.ruby.cp_cntrl1.sequencer: Cache miss at [0x139ec50, line 0x139ec40]
160597661000: system.ruby.cp_cntrl0.sequencer: Cache miss at [0xfaa3f0, line 0xfaa3c0]
160597662000: system.ruby.cp_cntrl1.sequencer: Cache miss at [0xca2840, line 0xca2840]
[...]
160600111000: system.ruby.cp_cntrl0.sequencer: Cache miss at [0x13a9710, line 0x13a9700]
160600113000: system.ruby.cp_cntrl0.sequencer: Cache miss at [0x13a9718, line 0x13a9700]
160600115000: system.ruby.cp_cntrl0.sequencer: Cache miss at [0x13a9718, line 0x13a9700]
160600117000: system.ruby.cp_cntrl0.sequencer: Cache miss at [0x13a9718, line 0x13a9700]
160600119000: system.ruby.cp_cntrl0.sequencer: Cache miss at [0x13a9720, line 0x13a9700]
160600121000: system.ruby.cp_cntrl0.sequencer: Cache miss at [0x13a9720, line 0x13a9700]
160600123000: system.ruby.cp_cntrl0.sequencer: Cache miss at [0x13a9720, line 0x13a9700]
160600125000: system.ruby.cp_cntrl0.sequencer: Cache miss at [0x38b08, line 0x38b00]
160600127000: system.ruby.cp_cntrl0.sequencer: Cache miss at [0x3faa740, line 0x3faa740]
160600129000: system.ruby.cp_cntrl0.sequencer: Cache miss at [0x10d9e78, line 0x10d9e40]
160600131000: system.ruby.cp_cntrl0.sequencer: Cache miss at [0x3faa748, line 0x3faa740]
160600133000: system.ruby.cp_cntrl0.sequencer: Cache miss at [0x3faa748, line 0x3faa740]
160600135000: system.ruby.cp_cntrl0.sequencer: Cache miss at [0x3faa740, line 0x3faa740]
160600137000: system.ruby.cp_cntrl0.sequencer: Cache miss at [0x38b08, line 0x38b00]
160600139000: system.ruby.cp_cntrl0.sequencer: Cache miss at [0xfaa3f0, line 0xfaa3c0]
160600141000: system.ruby.cp_cntrl0.sequencer: Cache miss at [0xfaa3f0, line 0xfaa3c0]
160600143000: system.ruby.cp_cntrl0.sequencer: Cache miss at [0xfaa3f8, line 0xfaa3c0]
160600145000: system.ruby.cp_cntrl0.sequencer: Cache miss at [0xf90c20, line 0xf90c00]
160600147000: system.ruby.cp_cntrl0.sequencer: Cache miss at [0xc62610, line 0xc62600]
160600149000: system.ruby.cp_cntrl0.sequencer: Cache miss at [0x13a9710, line 0x13a9700]
160600151000: system.ruby.cp_cntrl0.sequencer: Cache miss at [0x13a9710, line 0x13a9700]
160600153000: system.ruby.cp_cntrl0.sequencer: Cache miss at [0x13a9718, line 0x13a9700]
160600155000: system.ruby.cp_cntrl0.sequencer: Cache miss at [0x13a9718, line 0x13a9700]
160600157000: system.ruby.cp_cntrl0.sequencer: Cache miss at [0x13a9718, line 0x13a9700]
160600159000: system.ruby.cp_cntrl0.sequencer: Cache miss at [0x13a9720, line 0x13a9700]
160600161000: system.ruby.cp_cntrl0.sequencer: Cache miss at [0x13a9720, line 0x13a9700]
160600163000: system.ruby.cp_cntrl0.sequencer: Cache miss at [0x13a9720, line 0x13a9700]
160600165000: system.ruby.cp_cntrl0.sequencer: Cache miss at [0x38b08, line 0x38b00]
160600167000: system.ruby.cp_cntrl0.sequencer: Cache miss at [0x3faa740, line 0x3faa740]
160600169000: system.ruby.cp_cntrl0.sequencer: Cache miss at [0x10d9e78, line 0x10d9e40]
160600171000: system.ruby.cp_cntrl0.sequencer: Cache miss at [0x3faa748, line 0x3faa740]
160600173000: system.ruby.cp_cntrl0.sequencer: Cache miss at [0x3faa748, line 0x3faa740]
160600175000: system.ruby.cp_cntrl0.sequencer: Cache miss at [0x3faa740, line 0x3faa740]
160600177000: system.ruby.cp_cntrl0.sequencer: Cache miss at [0x38b08, line 0x38b00]
160600179000: system.ruby.cp_cntrl0.sequencer: Cache miss at [0xfaa3f0, line 0xfaa3c0]
160600181000: system.ruby.cp_cntrl0.sequencer: Cache miss at [0xfaa3f0, line 0xfaa3c0]
160600183000: system.ruby.cp_cntrl0.sequencer: Cache miss at [0xfaa3f8, line 0xfaa3c0]
160600185000: system.ruby.cp_cntrl0.sequencer: Cache miss at [0xf90c20, line 0xf90c00]
160600187000: system.ruby.cp_cntrl0.sequencer: Cache miss at [0xc62610, line 0xc62600]
160600189000: system.ruby.cp_cntrl0.sequencer: Cache miss at [0x13a9710, line 0x13a9700]
160600191000: system.ruby.cp_cntrl0.sequencer: Cache miss at [0x13a9710, line 0x13a9700]
160600193000: system.ruby.cp_cntrl0.sequencer: Cache miss at [0x13a9718, line 0x13a9700]
160600195000: system.ruby.cp_cntrl0.sequencer: Cache miss at [0x13a9718, line 0x13a9700]
160600197000: system.ruby.cp_cntrl0.sequencer: Cache miss at [0x13a9718, line 0x13a9700]
160600199000: system.ruby.cp_cntrl0.sequencer: Cache miss at [0x13a9720, line 0x13a9700]
160600201000: system.ruby.cp_cntrl0.sequencer: Cache miss at [0x13a9720, line 0x13a9700]
160600203000: system.ruby.cp_cntrl0.sequencer: Cache miss at [0x13a9720, line 0x13a9700]
160600205000: system.ruby.cp_cntrl0.sequencer: Cache miss at [0x38b08, line 0x38b00]
160600207000: system.ruby.cp_cntrl0.sequencer: Cache miss at [0x3faa740, line 0x3faa740]
160600209000: system.ruby.cp_cntrl0.sequencer: Cache miss at [0x10d9e78, line 0x10d9e40]
160600211000: system.ruby.cp_cntrl0.sequencer: Cache miss at [0x3faa748, line 0x3faa740]
160600213000: system.ruby.cp_cntrl0.sequencer: Cache miss at [0x3faa748, line 0x3faa740]
160600215000: system.ruby.cp_cntrl0.sequencer: Cache miss at [0x3faa740, line 0x3faa740]
160600217000: system.ruby.cp_cntrl0.sequencer: Cache miss at [0x38b08, line 0x38b00]
160600219000: system.ruby.cp_cntrl0.sequencer: Cache miss at [0xfaa3f0, line 0xfaa3c0]
160600221000: system.ruby.cp_cntrl0.sequencer: Cache miss at [0xfaa3f0, line 0xfaa3c0]
160600223000: system.ruby.cp_cntrl0.sequencer: Cache miss at [0xfaa3f8, line 0xfaa3c0]
160600225000: system.ruby.cp_cntrl0.sequencer: Cache miss at [0xf90c20, line 0xf90c00]
160600227000: system.ruby.cp_cntrl0.sequencer: Cache miss at [0xc62610, line 0xc62600]
160600229000: system.ruby.cp_cntrl0.sequencer: Cache miss at [0x13a9710, line 0x13a9700]
160600231000: system.ruby.cp_cntrl0.sequencer: Cache miss at [0x13a9710, line 0x13a9700]
160600233000: system.ruby.cp_cntrl0.sequencer: Cache miss at [0x13a9718, line 0x13a9700]
160600235000: system.ruby.cp_cntrl0.sequencer: Cache miss at [0x13a9718, line 0x13a9700]
160600237000: system.ruby.cp_cntrl0.sequencer: Cache miss at [0x13a9718, line 0x13a9700]
160600239000: system.ruby.cp_cntrl0.sequencer: Cache miss at [0x13a9720, line 0x13a9700]
160600241000: system.ruby.cp_cntrl0.sequencer: Cache miss at [0x13a9720, line 0x13a9700]
160600243000: system.ruby.cp_cntrl0.sequencer: Cache miss at [0x13a9720, line 0x13a9700]
160600245000: system.ruby.cp_cntrl0.sequencer: Cache miss at [0x38b08, line 0x38b00]
160600247000: system.ruby.cp_cntrl0.sequencer: Cache miss at [0x3faa740, line 0x3faa740]
160600249000: system.ruby.cp_cntrl0.sequencer: Cache miss at [0x10d9e78, line 0x10d9e40]
160600251000: system.ruby.cp_cntrl0.sequencer: Cache miss at [0x3faa748, line 0x3faa740]
160600253000: system.ruby.cp_cntrl0.sequencer: Cache miss at [0x3faa748, line 0x3faa740]
160600255000: system.ruby.cp_cntrl0.sequencer: Cache miss at [0x3faa740, line 0x3faa740]
160600256205: system.ruby.tcp_cntrl0.coalescer: ReadCallBack GPU Cache miss at <extra arg>%x
160600256205: system.ruby.tcp_cntrl0.coalescer: GPU Cache miss at [0x1386000, line 0x1386000]
160600256205: system.ruby.tcp_cntrl0.coalescer: ReadCallBack GPU Cache miss at <extra arg>%x
160600256205: system.ruby.tcp_cntrl0.coalescer: GPU Cache miss at [0x1386004, line 0x1386000]
160600256205: system.ruby.tcp_cntrl0.coalescer: ReadCallBack GPU Cache miss at <extra arg>%x
160600256205: system.ruby.tcp_cntrl0.coalescer: GPU Cache miss at [0x1386008, line 0x1386000]
160600257000: system.ruby.cp_cntrl0.sequencer: Cache miss at [0x38b08, line 0x38b00]
160600259000: system.ruby.cp_cntrl0.sequencer: Cache miss at [0xfaa3f0, line 0xfaa3c0]
160600261000: system.ruby.cp_cntrl0.sequencer: Cache miss at [0xfaa3f0, line 0xfaa3c0]
160600263000: system.ruby.cp_cntrl0.sequencer: Cache miss at [0xfaa3f8, line 0xfaa3c0]
160600265000: system.ruby.cp_cntrl0.sequencer: Cache miss at [0xf90c20, line 0xf90c00]
160600266195: system.ruby.tcp_cntrl0.coalescer: ReadCallBack GPU Cache miss at <extra arg>%x
160600266195: system.ruby.tcp_cntrl0.coalescer: GPU Cache miss at [0x1386080, line 0x1386080]
160600266195: system.ruby.tcp_cntrl0.coalescer: ReadCallBack GPU Cache miss at <extra arg>%x
160600266195: system.ruby.tcp_cntrl0.coalescer: GPU Cache miss at [0x1386084, line 0x1386080]
160600267000: system.ruby.cp_cntrl0.sequencer: Cache miss at [0xc62610, line 0xc62600]
160600269000: system.ruby.cp_cntrl0.sequencer: Cache miss at [0x13a9710, line 0x13a9700]
160600271000: system.ruby.cp_cntrl0.sequencer: Cache miss at [0x13a9710, line 0x13a9700]
160600273000: system.ruby.cp_cntrl0.sequencer: Cache miss at [0x13a9718, line 0x13a9700]
160600275000: system.ruby.cp_cntrl0.sequencer: Cache miss at [0x13a9718, line 0x13a9700]
160600276185: system.ruby.tcp_cntrl0.coalescer: ReadCallBack GPU Cache miss at <extra arg>%x
160600276185: system.ruby.tcp_cntrl0.coalescer: GPU Cache miss at [0x1386100, line 0x1386100]
160600276185: system.ruby.tcp_cntrl0.coalescer: ReadCallBack GPU Cache miss at <extra arg>%x
160600276185: system.ruby.tcp_cntrl0.coalescer: GPU Cache miss at [0x1386104, line 0x1386100]
160600276185: system.ruby.tcp_cntrl0.coalescer: ReadCallBack GPU Cache miss at <extra arg>%x
160600276185: system.ruby.tcp_cntrl0.coalescer: GPU Cache miss at [0x1386108, line 0x1386100]
160600277000: system.ruby.cp_cntrl0.sequencer: Cache miss at [0x13a9718, line 0x13a9700]
160600279000: system.ruby.cp_cntrl0.sequencer: Cache miss at [0x13a9720, line 0x13a9700]
160600281000: system.ruby.cp_cntrl0.sequencer: Cache miss at [0x13a9720, line 0x13a9700]
160600283000: system.ruby.cp_cntrl0.sequencer: Cache miss at [0x13a9720, line 0x13a9700]
160600285000: system.ruby.cp_cntrl0.sequencer: Cache miss at [0x38b08, line 0x38b00]
160600286175: system.ruby.tcp_cntrl0.coalescer: ReadCallBack GPU Cache miss at <extra arg>%x
160600286175: system.ruby.tcp_cntrl0.coalescer: GPU Cache miss at [0x1386180, line 0x1386180]
160600286175: system.ruby.tcp_cntrl0.coalescer: ReadCallBack GPU Cache miss at <extra arg>%x
160600286175: system.ruby.tcp_cntrl0.coalescer: GPU Cache miss at [0x1386184, line 0x1386180]
160600287000: system.ruby.cp_cntrl0.sequencer: Cache miss at [0x3faa740, line 0x3faa740]
160600289000: system.ruby.cp_cntrl0.sequencer: Cache miss at [0x10d9e78, line 0x10d9e40]
160600291000: system.ruby.cp_cntrl0.sequencer: Cache miss at [0x3faa748, line 0x3faa740]
160600293000: system.ruby.cp_cntrl0.sequencer: Cache miss at [0x3faa748, line 0x3faa740]
160600295000: system.ruby.cp_cntrl0.sequencer: Cache miss at [0x3faa740, line 0x3faa740]
160600297000: system.ruby.cp_cntrl0.sequencer: Cache miss at [0x38b08, line 0x38b00]
160600299000: system.ruby.cp_cntrl0.sequencer: Cache miss at [0xfaa3f0, line 0xfaa3c0]
160600299495: system.ruby.tcp_cntrl0.coalescer: ReadCallBack GPU Cache miss at <extra arg>%x
160600299495: system.ruby.tcp_cntrl0.coalescer: GPU Cache miss at [0x1386200, line 0x1386200]
160600301000: system.ruby.cp_cntrl0.sequencer: Cache miss at [0xfaa3f0, line 0xfaa3c0]
160600303000: system.ruby.cp_cntrl0.sequencer: Cache miss at [0xfaa3f8, line 0xfaa3c0]
160600305000: system.ruby.cp_cntrl0.sequencer: Cache miss at [0xf90c20, line 0xf90c00]
160600307000: system.ruby.cp_cntrl0.sequencer: Cache miss at [0xc62610, line 0xc62600]
160600309000: system.ruby.cp_cntrl0.sequencer: Cache miss at [0x13a9710, line 0x13a9700]
160600311000: system.ruby.cp_cntrl0.sequencer: Cache miss at [0x13a9710, line 0x13a9700]
160600313000: system.ruby.cp_cntrl0.sequencer: Cache miss at [0x13a9718, line 0x13a9700]
160600314000: system.ruby.cp_cntrl1.sequencer: Cache hit at [0x10cf3f8, line 0x10cf3c0]
160600315000: system.ruby.cp_cntrl0.sequencer: Cache miss at [0x13a9718, line 0x13a9700]
160600316000: system.ruby.cp_cntrl1.sequencer: Cache miss at [0x10cf3f8, line 0x10cf3c0]
160600317000: system.ruby.cp_cntrl0.sequencer: Cache miss at [0x13a9718, line 0x13a9700]
160600318000: system.ruby.cp_cntrl1.sequencer: Cache miss at [0x3fab8f0, line 0x3fab8c0]
160600319000: system.ruby.cp_cntrl0.sequencer: Cache miss at [0x13a9720, line 0x13a9700]
160600320000: system.ruby.cp_cntrl1.sequencer: Cache miss at [0x3fab8f0, line 0x3fab8c0]
160600321000: system.ruby.cp_cntrl0.sequencer: Cache miss at [0x13a9720, line 0x13a9700]
160600322000: system.ruby.cp_cntrl1.sequencer: Cache miss at [0x3fab8f8, line 0x3fab8c0]
160600323000: system.ruby.cp_cntrl0.sequencer: Cache miss at [0x13a9720, line 0x13a9700]
160600324000: system.ruby.cp_cntrl1.sequencer: Cache miss at [0x10cf3f0, line 0x10cf3c0]
160600325000: system.ruby.cp_cntrl0.sequencer: Cache miss at [0x38b08, line 0x38b00]
160600326000: system.ruby.cp_cntrl1.sequencer: Cache miss at [0x3fab8f8, line 0x3fab8c0]
160600327000: system.ruby.cp_cntrl0.sequencer: Cache miss at [0x3faa740, line 0x3faa740]
160600328000: system.ruby.cp_cntrl1.sequencer: Cache miss at [0x3fab900, line 0x3fab900]
160600329000: system.ruby.cp_cntrl0.sequencer: Cache miss at [0x10d9e78, line 0x10d9e40]
160600330000: system.ruby.cp_cntrl1.sequencer: Cache miss at [0x3fab900, line 0x3fab900]
160600331000: system.ruby.cp_cntrl0.sequencer: Cache miss at [0x3faa748, line 0x3faa740]
160600332000: system.ruby.cp_cntrl1.sequencer: Cache miss at [0x3fab900, line 0x3fab900]
160600333000: system.ruby.cp_cntrl0.sequencer: Cache miss at [0x3faa748, line 0x3faa740]
160600334000: system.ruby.cp_cntrl1.sequencer: Cache miss at [0x3fab908, line 0x3fab900]
160600335000: system.ruby.cp_cntrl0.sequencer: Cache miss at [0x3faa740, line 0x3faa740]
160600336000: system.ruby.cp_cntrl1.sequencer: Cache miss at [0x3fab908, line 0x3fab900]
160600337000: system.ruby.cp_cntrl0.sequencer: Cache miss at [0x38b08, line 0x38b00]
160600338000: system.ruby.cp_cntrl1.sequencer: Cache miss at [0x3fab910, line 0x3fab900]
160600339000: system.ruby.cp_cntrl0.sequencer: Cache miss at [0xfaa3f0, line 0xfaa3c0]
160600340000: system.ruby.cp_cntrl1.sequencer: Cache miss at [0xf9c028, line 0xf9c000]
160600341000: system.ruby.cp_cntrl0.sequencer: Cache miss at [0xfaa3f0, line 0xfaa3c0]
160600342000: system.ruby.cp_cntrl1.sequencer: Cache miss at [0x3fab910, line 0x3fab900]
160600343000: system.ruby.cp_cntrl0.sequencer: Cache miss at [0xfaa3f8, line 0xfaa3c0]
160600344000: system.ruby.cp_cntrl1.sequencer: Cache miss at [0x3fab920, line 0x3fab900]
160600345000: system.ruby.cp_cntrl0.sequencer: Cache miss at [0xf90c20, line 0xf90c00]
160600346000: system.ruby.cp_cntrl1.sequencer: Cache miss at [0x3fab920, line 0x3fab900]
160600347000: system.ruby.cp_cntrl0.sequencer: Cache miss at [0xc62610, line 0xc62600]
160600348000: system.ruby.cp_cntrl1.sequencer: Cache miss at [0x3fab928, line 0x3fab900]
160600349000: system.ruby.cp_cntrl0.sequencer: Cache miss at [0x13a9710, line 0x13a9700]
160600350000: system.ruby.cp_cntrl1.sequencer: Cache miss at [0x3fab8a8, line 0x3fab880]
160600351000: system.ruby.cp_cntrl0.sequencer: Cache miss at [0x13a9710, line 0x13a9700]
160600352000: system.ruby.cp_cntrl1.sequencer: Cache miss at [0x139ec38, line 0x139ec00]
160600353000: system.ruby.cp_cntrl0.sequencer: Cache miss at [0x13a9718, line 0x13a9700]
160600354000: system.ruby.cp_cntrl1.sequencer: Cache miss at [0x3fab8a8, line 0x3fab880]
160600355000: system.ruby.cp_cntrl0.sequencer: Cache miss at [0x13a9718, line 0x13a9700]
160600356000: system.ruby.cp_cntrl1.sequencer: Cache miss at [0x3fab8b0, line 0x3fab880]
160600357000: system.ruby.cp_cntrl0.sequencer: Cache miss at [0x13a9718, line 0x13a9700]
160600358000: system.ruby.cp_cntrl1.sequencer: Cache miss at [0x139d728, line 0x139d700]
160600359000: system.ruby.cp_cntrl0.sequencer: Cache miss at [0x13a9720, line 0x13a9700]
160600360000: system.ruby.cp_cntrl1.sequencer: Cache miss at [0x3fab8b0, line 0x3fab880]
160600361000: system.ruby.cp_cntrl0.sequencer: Cache miss at [0x13a9720, line 0x13a9700]
160600362000: system.ruby.cp_cntrl1.sequencer: Cache miss at [0x3fab8b8, line 0x3fab880]
160600363000: system.ruby.cp_cntrl0.sequencer: Cache miss at [0x13a9720, line 0x13a9700]
160600364000: system.ruby.cp_cntrl1.sequencer: Cache miss at [0x3fab8b8, line 0x3fab880]
160600365000: system.ruby.cp_cntrl0.sequencer: Cache miss at [0x38b08, line 0x38b00]
160600366000: system.ruby.cp_cntrl1.sequencer: Cache miss at [0x3fab8c0, line 0x3fab8c0]
160600367000: system.ruby.cp_cntrl0.sequencer: Cache miss at [0x3faa740, line 0x3faa740]
160600368000: system.ruby.cp_cntrl1.sequencer: Cache miss at [0x139ec40, line 0x139ec40]
160600369000: system.ruby.cp_cntrl0.sequencer: Cache miss at [0x10d9e78, line 0x10d9e40]
160600370000: system.ruby.cp_cntrl1.sequencer: Cache miss at [0x3fab8c0, line 0x3fab8c0]
160600371000: system.ruby.cp_cntrl0.sequencer: Cache miss at [0x3faa748, line 0x3faa740]
160600372000: system.ruby.cp_cntrl1.sequencer: Cache miss at [0x139ec48, line 0x139ec40]
160600373000: system.ruby.cp_cntrl0.sequencer: Cache miss at [0x3faa748, line 0x3faa740]
160600374000: system.ruby.cp_cntrl1.sequencer: Cache miss at [0x3fab8c0, line 0x3fab8c0]
160600375000: system.ruby.cp_cntrl0.sequencer: Cache miss at [0x3faa740, line 0x3faa740]
160600376000: system.ruby.cp_cntrl1.sequencer: Cache miss at [0x139ec50, line 0x139ec40]
160600377000: system.ruby.cp_cntrl0.sequencer: Cache miss at [0x38b08, line 0x38b00]
160600378000: system.ruby.cp_cntrl1.sequencer: Cache miss at [0x3fab8c0, line 0x3fab8c0]
160600379000: system.ruby.cp_cntrl0.sequencer: Cache miss at [0xfaa3f0, line 0xfaa3c0]
160600380000: system.ruby.cp_cntrl1.sequencer: Cache miss at [0x139ec58, line 0x139ec40]
160600381000: system.ruby.cp_cntrl0.sequencer: Cache miss at [0xfaa3f0, line 0xfaa3c0]
160600382000: system.ruby.cp_cntrl1.sequencer: Cache miss at [0x3fab8c0, line 0x3fab8c0]
160600383000: system.ruby.cp_cntrl0.sequencer: Cache miss at [0xfaa3f8, line 0xfaa3c0]
160600384000: system.ruby.cp_cntrl1.sequencer: Cache miss at [0x139ec60, line 0x139ec40]
160600385000: system.ruby.cp_cntrl0.sequencer: Cache miss at [0xf90c20, line 0xf90c00]
160600386000: system.ruby.cp_cntrl1.sequencer: Cache miss at [0x3fab8c8, line 0x3fab8c0]
160600387000: system.ruby.cp_cntrl0.sequencer: Cache miss at [0xc62610, line 0xc62600]
160600388000: system.ruby.cp_cntrl1.sequencer: Cache miss at [0x139ec68, line 0x139ec40]
160600389000: system.ruby.cp_cntrl0.sequencer: Cache miss at [0x13a9710, line 0x13a9700]
160600390000: system.ruby.cp_cntrl1.sequencer: Cache miss at [0x13aa0f8, line 0x13aa0c0]
160600391000: system.ruby.cp_cntrl0.sequencer: Cache miss at [0x13a9710, line 0x13a9700]
160600392000: system.ruby.cp_cntrl1.sequencer: Cache miss at [0x13aa100, line 0x13aa100]
160600393000: system.ruby.cp_cntrl0.sequencer: Cache miss at [0x13a9718, line 0x13a9700]
160600394000: system.ruby.cp_cntrl1.sequencer: Cache miss at [0x10cf370, line 0x10cf340]
160600395000: system.ruby.cp_cntrl0.sequencer: Cache miss at [0x13a9718, line 0x13a9700]
160600396000: system.ruby.cp_cntrl1.sequencer: Cache miss at [0x13aa100, line 0x13aa100]
160600397000: system.ruby.cp_cntrl0.sequencer: Cache miss at [0x13a9718, line 0x13a9700]
160600398000: system.ruby.cp_cntrl1.sequencer: Cache miss at [0x13aa100, line 0x13aa100]
160600399000: system.ruby.cp_cntrl0.sequencer: Cache miss at [0x13a9720, line 0x13a9700]
160600400000: system.ruby.cp_cntrl1.sequencer: Cache miss at [0x13aa108, line 0x13aa100]
160600401000: system.ruby.cp_cntrl0.sequencer: Cache miss at [0x13a9720, line 0x13a9700]
160600402000: system.ruby.cp_cntrl1.sequencer: Cache miss at [0x13aa108, line 0x13aa100]
160600403000: system.ruby.cp_cntrl0.sequencer: Cache miss at [0x13a9720, line 0x13a9700]
160600404000: system.ruby.cp_cntrl1.sequencer: Cache miss at [0xc67318, line 0xc67300]
160600405000: system.ruby.cp_cntrl0.sequencer: Cache miss at [0x38b08, line 0x38b00]
160600406000: system.ruby.cp_cntrl1.sequencer: Cache miss at [0x139ec68, line 0x139ec40]
160600407000: system.ruby.cp_cntrl0.sequencer: Cache miss at [0x3faa740, line 0x3faa740]
160600408000: system.ruby.cp_cntrl1.sequencer: Cache miss at [0x3fb2e10, line 0x3fb2e00]
160600408275: system.ruby.sqc_cntrl0.sequencer: Cache hit at [0x401f140, line 0x401f140]
160600409000: system.ruby.cp_cntrl0.sequencer: Cache miss at [0x10d9e78, line 0x10d9e40]
160600410000: system.ruby.cp_cntrl1.sequencer: Cache miss at [0x3fb2e10, line 0x3fb2e00]
160600411000: system.ruby.cp_cntrl0.sequencer: Cache miss at [0x3faa748, line 0x3faa740]
160600412000: system.ruby.cp_cntrl1.sequencer: Cache miss at [0x1399b90, line 0x1399b80]
Dummy value = 0
Ticks: 167668792500
Exiting because  exiting with last active thread context
