Global frequency set at 1000000000000 ticks per second
Forcing maxCoalescedReqs to 32 (TLB assoc.) 
Forcing maxCoalescedReqs to 32 (TLB assoc.) 
Forcing maxCoalescedReqs to 32 (TLB assoc.) 
Forcing maxCoalescedReqs to 32 (TLB assoc.) 
Forcing maxCoalescedReqs to 32 (TLB assoc.) 
Forcing maxCoalescedReqs to 32 (TLB assoc.) 
Forcing maxCoalescedReqs to 32 (TLB assoc.) 
Forcing maxCoalescedReqs to 32 (TLB assoc.) 
gem5 Simulator System.  https://www.gem5.org
gem5 is copyrighted software; use the --copyright option for details.

gem5 version DEVELOP-FOR-23.1
gem5 compiled Nov  4 2023 18:02:29
gem5 started Nov  5 2023 20:49:51
gem5 executing on 1df14a1e93b2, pid 1
command line: build/VEGA_X86/gem5.opt --debug-flag=RubyHitMiss,ProtocolTrace --debug-start=160596105001 --debug-end=160600412715 configs/example/apu_se.py -n 3 --dgpu --gfx-version=gfx900 --num-compute-units=4 --cu-per-sa=4 --num-gpu-complex=1 --reg-alloc-policy=dynamic --num-tccs=8 --num-dirs=64 --mem-size=16GB --mem-type=HBM_2000_4H_1x64 --vreg-file-size=16384 --sreg-file-size=800 --tcc-size=256kB --gpu-clock=1801MHz --ruby-clock=1000MHz --vrf_lm_bus_latency=6 --mem-req-latency=69 --mem-resp-latency=69 --mandatory_queue_latency=1 --max-cu-tokens=160 --max-coalesces-per-cycle=10 --sqc-size=16kB --tcp-size=512B --scalar-mem-req-latency=28 --TCP_latency=4 --tcp-assoc=4 --tcp-num-banks=16 --TCC_latency=121 --tcc-assoc=16 --tcc-tag-access-latency=1 --tcc-data-access-latency=1 --tcp-rp=FIFORP --WB_L2 --tcc-rp=FIFORP -c test-rp-3

info: Standard input is not a terminal, disabling listeners.
Num SQC =  1 Num scalar caches =  1 Num CU =  4
0x7ffee6dd1000, 0x7fffffffebe0
   160596105500   0        Seq               Begin       >       [0x13a9718, line 0x13a9700] IFETCH
   160596106000   2        Seq                Done       >       [0xca2848, line 0xca2840] 1 cycles
160596106000: system.ruby.cp_cntrl1.sequencer: Cache miss at [0xca2848, line 0xca2840]
   160596106000   1   CorePair       Ifetch0_L1hit      S>S      [0xca2840, line 0xca2840] 
   160596106500   2        Seq               Begin       >       [0x139ec40, line 0x139ec40] ST
   160596107000   0        Seq                Done       >       [0x13a9718, line 0x13a9700] 1 cycles
160596107000: system.ruby.cp_cntrl0.sequencer: Cache miss at [0x13a9718, line 0x13a9700]
   160596107000   0   CorePair       Ifetch0_L1hit      S>S      [0x13a9700, line 0x13a9700] 
   160596107500   0        Seq               Begin       >       [0x13a9718, line 0x13a9700] IFETCH
   160596108000   2        Seq                Done       >       [0x139ec40, line 0x139ec40] 1 cycles
160596108000: system.ruby.cp_cntrl1.sequencer: Cache miss at [0x139ec40, line 0x139ec40]
   160596108000   1   CorePair      C0_Store_L1hit     M0>M0     [0x139ec40, line 0x139ec40] 
   160596108500   2        Seq               Begin       >       [0xca2848, line 0xca2840] IFETCH
   160596109000   0        Seq                Done       >       [0x13a9718, line 0x13a9700] 1 cycles
160596109000: system.ruby.cp_cntrl0.sequencer: Cache miss at [0x13a9718, line 0x13a9700]
   160596109000   0   CorePair       Ifetch0_L1hit      S>S      [0x13a9700, line 0x13a9700] 
   160596109500   0        Seq               Begin       >       [0x13a9718, line 0x13a9700] IFETCH
   160596110000   2        Seq                Done       >       [0xca2848, line 0xca2840] 1 cycles
160596110000: system.ruby.cp_cntrl1.sequencer: Cache miss at [0xca2848, line 0xca2840]
   160596110000   1   CorePair       Ifetch0_L1hit      S>S      [0xca2840, line 0xca2840] 
   160596110500   2        Seq               Begin       >       [0x139ec38, line 0x139ec00] ST
   160596111000   0        Seq                Done       >       [0x13a9718, line 0x13a9700] 1 cycles
160596111000: system.ruby.cp_cntrl0.sequencer: Cache miss at [0x13a9718, line 0x13a9700]
   160596111000   0   CorePair       Ifetch0_L1hit      S>S      [0x13a9700, line 0x13a9700] 
   160596111500   0        Seq               Begin       >       [0x13a9720, line 0x13a9700] IFETCH
   160596112000   2        Seq                Done       >       [0x139ec38, line 0x139ec00] 1 cycles
160596112000: system.ruby.cp_cntrl1.sequencer: Cache miss at [0x139ec38, line 0x139ec00]
   160596112000   1   CorePair      C0_Store_L1hit     M0>M0     [0x139ec00, line 0x139ec00] 
   160596112500   2        Seq               Begin       >       [0xca2848, line 0xca2840] IFETCH
   160596113000   0        Seq                Done       >       [0x13a9720, line 0x13a9700] 1 cycles
160596113000: system.ruby.cp_cntrl0.sequencer: Cache miss at [0x13a9720, line 0x13a9700]
   160596113000   0   CorePair       Ifetch0_L1hit      S>S      [0x13a9700, line 0x13a9700] 
   160596113500   0        Seq               Begin       >       [0x13a9720, line 0x13a9700] IFETCH
   160596114000   2        Seq                Done       >       [0xca2848, line 0xca2840] 1 cycles
160596114000: system.ruby.cp_cntrl1.sequencer: Cache miss at [0xca2848, line 0xca2840]
   160596114000   1   CorePair       Ifetch0_L1hit      S>S      [0xca2840, line 0xca2840] 
   160596114500   2        Seq               Begin       >       [0xca2850, line 0xca2840] IFETCH
   160596115000   0        Seq                Done       >       [0x13a9720, line 0x13a9700] 1 cycles
160596115000: system.ruby.cp_cntrl0.sequencer: Cache miss at [0x13a9720, line 0x13a9700]
   160596115000   0   CorePair       Ifetch0_L1hit      S>S      [0x13a9700, line 0x13a9700] 
   160596115500   0        Seq               Begin       >       [0x13a9720, line 0x13a9700] IFETCH
   160596116000   2        Seq                Done       >       [0xca2850, line 0xca2840] 1 cycles
160596116000: system.ruby.cp_cntrl1.sequencer: Cache miss at [0xca2850, line 0xca2840]
   160596116000   1   CorePair       Ifetch0_L1hit      S>S      [0xca2840, line 0xca2840] 
   160596116500   2        Seq               Begin       >       [0xca2850, line 0xca2840] IFETCH
   160596117000   0        Seq                Done       >       [0x13a9720, line 0x13a9700] 1 cycles
160596117000: system.ruby.cp_cntrl0.sequencer: Cache miss at [0x13a9720, line 0x13a9700]
   160596117000   0   CorePair       Ifetch0_L1hit      S>S      [0x13a9700, line 0x13a9700] 
   160596117500   0        Seq               Begin       >       [0x38b08, line 0x38b00] LD
   160596118000   2        Seq                Done       >       [0xca2850, line 0xca2840] 1 cycles
160596118000: system.ruby.cp_cntrl1.sequencer: Cache miss at [0xca2850, line 0xca2840]
   160596118000   1   CorePair       Ifetch0_L1hit      S>S      [0xca2840, line 0xca2840] 
   160596118500   2        Seq               Begin       >       [0xca2858, line 0xca2840] IFETCH
   160596119000   0        Seq                Done       >       [0x38b08, line 0x38b00] 1 cycles
160596119000: system.ruby.cp_cntrl0.sequencer: Cache miss at [0x38b08, line 0x38b00]
   160596119000   0   CorePair       C0_Load_L1hit     M0>M0     [0x38b00, line 0x38b00] 
   160596119500   0        Seq               Begin       >       [0x3faa740, line 0x3faa740] IFETCH
   160596120000   2        Seq                Done       >       [0xca2858, line 0xca2840] 1 cycles
160596120000: system.ruby.cp_cntrl1.sequencer: Cache miss at [0xca2858, line 0xca2840]
   160596120000   1   CorePair       Ifetch0_L1hit      S>S      [0xca2840, line 0xca2840] 
   160596120500   2        Seq               Begin       >       [0x139d728, line 0x139d700] LD
   160596121000   0        Seq                Done       >       [0x3faa740, line 0x3faa740] 1 cycles
160596121000: system.ruby.cp_cntrl0.sequencer: Cache miss at [0x3faa740, line 0x3faa740]
   160596121000   0   CorePair       Ifetch0_L1hit      S>S      [0x3faa740, line 0x3faa740] 
   160596121500   0        Seq               Begin       >       [0x10d9d98, line 0x10d9d80] LD
   160596122000   2        Seq                Done       >       [0x139d728, line 0x139d700] 1 cycles
160596122000: system.ruby.cp_cntrl1.sequencer: Cache miss at [0x139d728, line 0x139d700]
   160596122000   1   CorePair       C0_Load_L1hit     M0>M0     [0x139d700, line 0x139d700] 
   160596122500   2        Seq               Begin       >       [0xca2858, line 0xca2840] IFETCH
   160596123000   0        Seq                Done       >       [0x10d9d98, line 0x10d9d80] 1 cycles
160596123000: system.ruby.cp_cntrl0.sequencer: Cache miss at [0x10d9d98, line 0x10d9d80]
   160596123000   0   CorePair       C0_Load_L1hit     M0>M0     [0x10d9d80, line 0x10d9d80] 
   160596123500   0        Seq               Begin       >       [0x3faa748, line 0x3faa740] IFETCH
   160596124000   2        Seq                Done       >       [0xca2858, line 0xca2840] 1 cycles
160596124000: system.ruby.cp_cntrl1.sequencer: Cache miss at [0xca2858, line 0xca2840]
   160596124000   1   CorePair       Ifetch0_L1hit      S>S      [0xca2840, line 0xca2840] 
   160596124500   2        Seq               Begin       >       [0x139ec28, line 0x139ec00] ST
   160596125000   0        Seq                Done       >       [0x3faa748, line 0x3faa740] 1 cycles
160596125000: system.ruby.cp_cntrl0.sequencer: Cache miss at [0x3faa748, line 0x3faa740]
   160596125000   0   CorePair       Ifetch0_L1hit      S>S      [0x3faa740, line 0x3faa740] 
   160596125500   0        Seq               Begin       >       [0x3faa748, line 0x3faa740] IFETCH
   160596126000   2        Seq                Done       >       [0x139ec28, line 0x139ec00] 1 cycles
160596126000: system.ruby.cp_cntrl1.sequencer: Cache miss at [0x139ec28, line 0x139ec00]
   160596126000   1   CorePair      C0_Store_L1hit     M0>M0     [0x139ec00, line 0x139ec00] 
   160596126500   2        Seq               Begin       >       [0xca2858, line 0xca2840] IFETCH
   160596127000   0        Seq                Done       >       [0x3faa748, line 0x3faa740] 1 cycles
160596127000: system.ruby.cp_cntrl0.sequencer: Cache miss at [0x3faa748, line 0x3faa740]
   160596127000   0   CorePair       Ifetch0_L1hit      S>S      [0x3faa740, line 0x3faa740] 
   160596127500   0        Seq               Begin       >       [0x3faa740, line 0x3faa740] IFETCH
   160596128000   2        Seq                Done       >       [0xca2858, line 0xca2840] 1 cycles
160596128000: system.ruby.cp_cntrl1.sequencer: Cache miss at [0xca2858, line 0xca2840]
   160596128000   1   CorePair       Ifetch0_L1hit      S>S      [0xca2840, line 0xca2840] 
   160596128500   2        Seq               Begin       >       [0xca2860, line 0xca2840] IFETCH
   160596129000   0        Seq                Done       >       [0x3faa740, line 0x3faa740] 1 cycles
160596129000: system.ruby.cp_cntrl0.sequencer: Cache miss at [0x3faa740, line 0x3faa740]
   160596129000   0   CorePair       Ifetch0_L1hit      S>S      [0x3faa740, line 0x3faa740] 
   160596129500   0        Seq               Begin       >       [0x38b08, line 0x38b00] ST
   160596130000   2        Seq                Done       >       [0xca2860, line 0xca2840] 1 cycles
160596130000: system.ruby.cp_cntrl1.sequencer: Cache miss at [0xca2860, line 0xca2840]
   160596130000   1   CorePair       Ifetch0_L1hit      S>S      [0xca2840, line 0xca2840] 
   160596130500   2        Seq               Begin       >       [0xca2860, line 0xca2840] IFETCH
   160596131000   0        Seq                Done       >       [0x38b08, line 0x38b00] 1 cycles
160596131000: system.ruby.cp_cntrl0.sequencer: Cache miss at [0x38b08, line 0x38b00]
   160596131000   0   CorePair      C0_Store_L1hit     M0>M0     [0x38b00, line 0x38b00] 
   160596131500   0        Seq               Begin       >       [0xfaa3f0, line 0xfaa3c0] IFETCH
   160596132000   2        Seq                Done       >       [0xca2860, line 0xca2840] 1 cycles
160596132000: system.ruby.cp_cntrl1.sequencer: Cache miss at [0xca2860, line 0xca2840]
   160596132000   1   CorePair       Ifetch0_L1hit      S>S      [0xca2840, line 0xca2840] 
   160596132500   2        Seq               Begin       >       [0x10ddad8, line 0x10ddac0] LD
   160596133000   0        Seq                Done       >       [0xfaa3f0, line 0xfaa3c0] 1 cycles
160596133000: system.ruby.cp_cntrl0.sequencer: Cache miss at [0xfaa3f0, line 0xfaa3c0]
   160596133000   0   CorePair       Ifetch0_L1hit      S>S      [0xfaa3c0, line 0xfaa3c0] 
   160596133500   0        Seq               Begin       >       [0xfaa3f0, line 0xfaa3c0] IFETCH
   160596134000   2        Seq                Done       >       [0x10ddad8, line 0x10ddac0] 1 cycles
160596134000: system.ruby.cp_cntrl1.sequencer: Cache miss at [0x10ddad8, line 0x10ddac0]
   160596134000   1   CorePair       C0_Load_L1hit      S>S      [0x10ddac0, line 0x10ddac0] 
   160596134500   2        Seq               Begin       >       [0xca2860, line 0xca2840] IFETCH
   160596135000   0        Seq                Done       >       [0xfaa3f0, line 0xfaa3c0] 1 cycles
160596135000: system.ruby.cp_cntrl0.sequencer: Cache miss at [0xfaa3f0, line 0xfaa3c0]
   160596135000   0   CorePair       Ifetch0_L1hit      S>S      [0xfaa3c0, line 0xfaa3c0] 
   160596135500   0        Seq               Begin       >       [0xfaa3f8, line 0xfaa3c0] IFETCH
   160596136000   2        Seq                Done       >       [0xca2860, line 0xca2840] 1 cycles
160596136000: system.ruby.cp_cntrl1.sequencer: Cache miss at [0xca2860, line 0xca2840]
   160596136000   1   CorePair       Ifetch0_L1hit      S>S      [0xca2840, line 0xca2840] 
   160596136500   2        Seq               Begin       >       [0xca2868, line 0xca2840] IFETCH
   160596137000   0        Seq                Done       >       [0xfaa3f8, line 0xfaa3c0] 1 cycles
160596137000: system.ruby.cp_cntrl0.sequencer: Cache miss at [0xfaa3f8, line 0xfaa3c0]
   160596137000   0   CorePair       Ifetch0_L1hit      S>S      [0xfaa3c0, line 0xfaa3c0] 
   160596137500   0        Seq               Begin       >       [0xf90c20, line 0xf90c00] IFETCH
   160596138000   2        Seq                Done       >       [0xca2868, line 0xca2840] 1 cycles
160596138000: system.ruby.cp_cntrl1.sequencer: Cache miss at [0xca2868, line 0xca2840]
   160596138000   1   CorePair       Ifetch0_L1hit      S>S      [0xca2840, line 0xca2840] 
   160596138500   2        Seq               Begin       >       [0xca2868, line 0xca2840] IFETCH
   160596139000   0        Seq                Done       >       [0xf90c20, line 0xf90c00] 1 cycles
160596139000: system.ruby.cp_cntrl0.sequencer: Cache miss at [0xf90c20, line 0xf90c00]
   160596139000   0   CorePair       Ifetch0_L1hit      S>S      [0xf90c00, line 0xf90c00] 
   160596139500   0        Seq               Begin       >       [0xc62610, line 0xc62600] LD
   160596140000   2        Seq                Done       >       [0xca2868, line 0xca2840] 1 cycles
160596140000: system.ruby.cp_cntrl1.sequencer: Cache miss at [0xca2868, line 0xca2840]
   160596140000   1   CorePair       Ifetch0_L1hit      S>S      [0xca2840, line 0xca2840] 
   160596140500   2        Seq               Begin       >       [0xca2868, line 0xca2840] IFETCH
   160596141000   0        Seq                Done       >       [0xc62610, line 0xc62600] 1 cycles
160596141000: system.ruby.cp_cntrl0.sequencer: Cache miss at [0xc62610, line 0xc62600]
   160596141000   0   CorePair       C0_Load_L1hit      S>S      [0xc62600, line 0xc62600] 
   160596141500   0        Seq               Begin       >       [0x13a9710, line 0x13a9700] IFETCH
   160596142000   2        Seq                Done       >       [0xca2868, line 0xca2840] 1 cycles
160596142000: system.ruby.cp_cntrl1.sequencer: Cache miss at [0xca2868, line 0xca2840]
   160596142000   1   CorePair       Ifetch0_L1hit      S>S      [0xca2840, line 0xca2840] 
   160596142500   2        Seq               Begin       >       [0xca2870, line 0xca2840] IFETCH
   160596143000   0        Seq                Done       >       [0x13a9710, line 0x13a9700] 1 cycles
160596143000: system.ruby.cp_cntrl0.sequencer: Cache miss at [0x13a9710, line 0x13a9700]
   160596143000   0   CorePair       Ifetch0_L1hit      S>S      [0x13a9700, line 0x13a9700] 
   160596143500   0        Seq               Begin       >       [0x13a9710, line 0x13a9700] IFETCH
   160596144000   2        Seq                Done       >       [0xca2870, line 0xca2840] 1 cycles
160596144000: system.ruby.cp_cntrl1.sequencer: Cache miss at [0xca2870, line 0xca2840]
   160596144000   1   CorePair       Ifetch0_L1hit      S>S      [0xca2840, line 0xca2840] 
   160596144500   2        Seq               Begin       >       [0xca2870, line 0xca2840] IFETCH
   160596145000   0        Seq                Done       >       [0x13a9710, line 0x13a9700] 1 cycles
160596145000: system.ruby.cp_cntrl0.sequencer: Cache miss at [0x13a9710, line 0x13a9700]
   160596145000   0   CorePair       Ifetch0_L1hit      S>S      [0x13a9700, line 0x13a9700] 
   160596145500   0        Seq               Begin       >       [0x13a9718, line 0x13a9700] IFETCH
   160596146000   2        Seq                Done       >       [0xca2870, line 0xca2840] 1 cycles
160596146000: system.ruby.cp_cntrl1.sequencer: Cache miss at [0xca2870, line 0xca2840]
   160596146000   1   CorePair       Ifetch0_L1hit      S>S      [0xca2840, line 0xca2840] 
   160596146500   2        Seq               Begin       >       [0xca2870, line 0xca2840] IFETCH
   160596147000   0        Seq                Done       >       [0x13a9718, line 0x13a9700] 1 cycles
160596147000: system.ruby.cp_cntrl0.sequencer: Cache miss at [0x13a9718, line 0x13a9700]
   160596147000   0   CorePair       Ifetch0_L1hit      S>S      [0x13a9700, line 0x13a9700] 
   160596147500   0        Seq               Begin       >       [0x13a9718, line 0x13a9700] IFETCH
   160596148000   2        Seq                Done       >       [0xca2870, line 0xca2840] 1 cycles
160596148000: system.ruby.cp_cntrl1.sequencer: Cache miss at [0xca2870, line 0xca2840]
   160596148000   1   CorePair       Ifetch0_L1hit      S>S      [0xca2840, line 0xca2840] 
   160596148500   2        Seq               Begin       >       [0xca2878, line 0xca2840] IFETCH
   160596149000   0        Seq                Done       >       [0x13a9718, line 0x13a9700] 1 cycles
160596149000: system.ruby.cp_cntrl0.sequencer: Cache miss at [0x13a9718, line 0x13a9700]
   160596149000   0   CorePair       Ifetch0_L1hit      S>S      [0x13a9700, line 0x13a9700] 
   160596149500   0        Seq               Begin       >       [0x13a9718, line 0x13a9700] IFETCH
   160596150000   2        Seq                Done       >       [0xca2878, line 0xca2840] 1 cycles
160596150000: system.ruby.cp_cntrl1.sequencer: Cache miss at [0xca2878, line 0xca2840]
   160596150000   1   CorePair       Ifetch0_L1hit      S>S      [0xca2840, line 0xca2840] 
   160596150500   2        Seq               Begin       >       [0xca2878, line 0xca2840] IFETCH
   160596151000   0        Seq                Done       >       [0x13a9718, line 0x13a9700] 1 cycles
160596151000: system.ruby.cp_cntrl0.sequencer: Cache miss at [0x13a9718, line 0x13a9700]
   160596151000   0   CorePair       Ifetch0_L1hit      S>S      [0x13a9700, line 0x13a9700] 
   160596151500   0        Seq               Begin       >       [0x13a9720, line 0x13a9700] IFETCH
   160596152000   2        Seq                Done       >       [0xca2878, line 0xca2840] 1 cycles
160596152000: system.ruby.cp_cntrl1.sequencer: Cache miss at [0xca2878, line 0xca2840]
   160596152000   1   CorePair       Ifetch0_L1hit      S>S      [0xca2840, line 0xca2840] 
   160596152500   2        Seq               Begin       >       [0xca2878, line 0xca2840] IFETCH
   160596153000   0        Seq                Done       >       [0x13a9720, line 0x13a9700] 1 cycles
160596153000: system.ruby.cp_cntrl0.sequencer: Cache miss at [0x13a9720, line 0x13a9700]
   160596153000   0   CorePair       Ifetch0_L1hit      S>S      [0x13a9700, line 0x13a9700] 
   160596153500   0        Seq               Begin       >       [0x13a9720, line 0x13a9700] IFETCH
   160596154000   2        Seq                Done       >       [0xca2878, line 0xca2840] 1 cycles
160596154000: system.ruby.cp_cntrl1.sequencer: Cache miss at [0xca2878, line 0xca2840]
   160596154000   1   CorePair       Ifetch0_L1hit      S>S      [0xca2840, line 0xca2840] 
   160596154500   2        Seq               Begin       >       [0xca2880, line 0xca2880] IFETCH
   160596155000   0        Seq                Done       >       [0x13a9720, line 0x13a9700] 1 cycles
160596155000: system.ruby.cp_cntrl0.sequencer: Cache miss at [0x13a9720, line 0x13a9700]
   160596155000   0   CorePair       Ifetch0_L1hit      S>S      [0x13a9700, line 0x13a9700] 
   160596155500   0        Seq               Begin       >       [0x13a9720, line 0x13a9700] IFETCH
   160596156000   2        Seq                Done       >       [0xca2880, line 0xca2880] 1 cycles
160596156000: system.ruby.cp_cntrl1.sequencer: Cache miss at [0xca2880, line 0xca2880]
   160596156000   1   CorePair       Ifetch0_L1hit      S>S      [0xca2880, line 0xca2880] 
   160596156500   2        Seq               Begin       >       [0xca2880, line 0xca2880] IFETCH
   160596157000   0        Seq                Done       >       [0x13a9720, line 0x13a9700] 1 cycles
160596157000: system.ruby.cp_cntrl0.sequencer: Cache miss at [0x13a9720, line 0x13a9700]
   160596157000   0   CorePair       Ifetch0_L1hit      S>S      [0x13a9700, line 0x13a9700] 
   160596157500   0        Seq               Begin       >       [0x38b08, line 0x38b00] LD
   160596158000   2        Seq                Done       >       [0xca2880, line 0xca2880] 1 cycles
160596158000: system.ruby.cp_cntrl1.sequencer: Cache miss at [0xca2880, line 0xca2880]
   160596158000   1   CorePair       Ifetch0_L1hit      S>S      [0xca2880, line 0xca2880] 
   160596158500   2        Seq               Begin       >       [0xca2888, line 0xca2880] IFETCH
   160596159000   0        Seq                Done       >       [0x38b08, line 0x38b00] 1 cycles
160596159000: system.ruby.cp_cntrl0.sequencer: Cache miss at [0x38b08, line 0x38b00]
   160596159000   0   CorePair       C0_Load_L1hit     M0>M0     [0x38b00, line 0x38b00] 
   160596159195  12        Seq                Done       >       [0x401f040, line 0x401f040] 982 cycles
160596159195: system.ruby.sqc_cntrl0.sequencer: Cache hit at [0x401f040, line 0x401f040]
   160596159195   0        SQC                Data     IV>V      [0x401f040, line 0x401f040] [ 0x0 0x0 0x54 0xdc 0x0 0x0 0x0 0x0 0x0 0x0 0x54 0xdc 0x2 0x0 0x0 0x2 0x0 0x0 0x54 0xdc 0x4 0x0 0x0 0x4 0x70 0x0 0x8c 0xbf 0x0 0x0 0x80 0xbf 0x0 0x0 0x81 0xbf 0x0 0x0 0x0 0x0 0x0 0x0 0x0 0x0 0x0 0x0 0x0 0x0 0x0 0x0 0x0 0x0 0x0 0x0 0x0 0x0 0x0 0x0 0x0 0x0 0x0 0x0 0x0 0x0 ]
   160596159500   0        Seq               Begin       >       [0x3faa740, line 0x3faa740] IFETCH
   160596160000   2        Seq                Done       >       [0xca2888, line 0xca2880] 1 cycles
160596160000: system.ruby.cp_cntrl1.sequencer: Cache miss at [0xca2888, line 0xca2880]
   160596160000   1   CorePair       Ifetch0_L1hit      S>S      [0xca2880, line 0xca2880] 
   160596160500   2        Seq               Begin       >       [0xca2888, line 0xca2880] IFETCH
   160596161000   0        Seq                Done       >       [0x3faa740, line 0x3faa740] 1 cycles
160596161000: system.ruby.cp_cntrl0.sequencer: Cache miss at [0x3faa740, line 0x3faa740]
   160596161000   0   CorePair       Ifetch0_L1hit      S>S      [0x3faa740, line 0x3faa740] 
   160596161500   0        Seq               Begin       >       [0x10d9d98, line 0x10d9d80] LD
   160596162000   2        Seq                Done       >       [0xca2888, line 0xca2880] 1 cycles
160596162000: system.ruby.cp_cntrl1.sequencer: Cache miss at [0xca2888, line 0xca2880]
   160596162000   1   CorePair       Ifetch0_L1hit      S>S      [0xca2880, line 0xca2880] 
   160596162500   2        Seq               Begin       >       [0xca2890, line 0xca2880] IFETCH
   160596163000   0        Seq                Done       >       [0x10d9d98, line 0x10d9d80] 1 cycles
160596163000: system.ruby.cp_cntrl0.sequencer: Cache miss at [0x10d9d98, line 0x10d9d80]
   160596163000   0   CorePair       C0_Load_L1hit     M0>M0     [0x10d9d80, line 0x10d9d80] 
   160596163500   0        Seq               Begin       >       [0x3faa748, line 0x3faa740] IFETCH
   160596164000   2        Seq                Done       >       [0xca2890, line 0xca2880] 1 cycles
160596164000: system.ruby.cp_cntrl1.sequencer: Cache miss at [0xca2890, line 0xca2880]
   160596164000   1   CorePair       Ifetch0_L1hit      S>S      [0xca2880, line 0xca2880] 
   160596164500   2        Seq               Begin       >       [0xca2890, line 0xca2880] IFETCH
   160596165000   0        Seq                Done       >       [0x3faa748, line 0x3faa740] 1 cycles
160596165000: system.ruby.cp_cntrl0.sequencer: Cache miss at [0x3faa748, line 0x3faa740]
   160596165000   0   CorePair       Ifetch0_L1hit      S>S      [0x3faa740, line 0x3faa740] 
   160596165500   0        Seq               Begin       >       [0x3faa748, line 0x3faa740] IFETCH
   160596166000   2        Seq                Done       >       [0xca2890, line 0xca2880] 1 cycles
160596166000: system.ruby.cp_cntrl1.sequencer: Cache miss at [0xca2890, line 0xca2880]
   160596166000   1   CorePair       Ifetch0_L1hit      S>S      [0xca2880, line 0xca2880] 
   160596166500   2        Seq               Begin       >       [0xca2890, line 0xca2880] IFETCH
   160596167000   0        Seq                Done       >       [0x3faa748, line 0x3faa740] 1 cycles
160596167000: system.ruby.cp_cntrl0.sequencer: Cache miss at [0x3faa748, line 0x3faa740]
   160596167000   0   CorePair       Ifetch0_L1hit      S>S      [0x3faa740, line 0x3faa740] 
   160596167500   0        Seq               Begin       >       [0x3faa740, line 0x3faa740] IFETCH
   160596168000   2        Seq                Done       >       [0xca2890, line 0xca2880] 1 cycles
160596168000: system.ruby.cp_cntrl1.sequencer: Cache miss at [0xca2890, line 0xca2880]
   160596168000   1   CorePair       Ifetch0_L1hit      S>S      [0xca2880, line 0xca2880] 
   160596168500   2        Seq               Begin       >       [0xca2898, line 0xca2880] IFETCH
   160596169000   0        Seq                Done       >       [0x3faa740, line 0x3faa740] 1 cycles
160596169000: system.ruby.cp_cntrl0.sequencer: Cache miss at [0x3faa740, line 0x3faa740]
   160596169000   0   CorePair       Ifetch0_L1hit      S>S      [0x3faa740, line 0x3faa740] 
   160596169500   0        Seq               Begin       >       [0x38b08, line 0x38b00] ST
   160596170000   2        Seq                Done       >       [0xca2898, line 0xca2880] 1 cycles
160596170000: system.ruby.cp_cntrl1.sequencer: Cache miss at [0xca2898, line 0xca2880]
   160596170000   1   CorePair       Ifetch0_L1hit      S>S      [0xca2880, line 0xca2880] 
   160596170500   2        Seq               Begin       >       [0xca2898, line 0xca2880] IFETCH
   160596171000   0        Seq                Done       >       [0x38b08, line 0x38b00] 1 cycles
160596171000: system.ruby.cp_cntrl0.sequencer: Cache miss at [0x38b08, line 0x38b00]
   160596171000   0   CorePair      C0_Store_L1hit     M0>M0     [0x38b00, line 0x38b00] 
   160596171500   0        Seq               Begin       >       [0xfaa3f0, line 0xfaa3c0] IFETCH
   160596171960  13        Seq               Begin       >       [0x3eb7000, line 0x3eb7000] LD
   160596172000   2        Seq                Done       >       [0xca2898, line 0xca2880] 1 cycles
160596172000: system.ruby.cp_cntrl1.sequencer: Cache miss at [0xca2898, line 0xca2880]
   160596172000   1   CorePair       Ifetch0_L1hit      S>S      [0xca2880, line 0xca2880] 
   160596172500   2        Seq               Begin       >       [0xca28a0, line 0xca2880] IFETCH
   160596172515   1        SQC               Fetch      I>IV     [0x3eb7000, line 0x3eb7000] 
   160596173000   0        Seq                Done       >       [0xfaa3f0, line 0xfaa3c0] 1 cycles
160596173000: system.ruby.cp_cntrl0.sequencer: Cache miss at [0xfaa3f0, line 0xfaa3c0]
   160596173000   0   CorePair       Ifetch0_L1hit      S>S      [0xfaa3c0, line 0xfaa3c0] 
   160596173500   0        Seq               Begin       >       [0xfaa3f0, line 0xfaa3c0] IFETCH
   160596174000   2        Seq                Done       >       [0xca28a0, line 0xca2880] 1 cycles
160596174000: system.ruby.cp_cntrl1.sequencer: Cache miss at [0xca28a0, line 0xca2880]
   160596174000   1   CorePair       Ifetch0_L1hit      S>S      [0xca2880, line 0xca2880] 
   160596174500   2        Seq               Begin       >       [0x53d78, line 0x53d40] LD
   160596175000   0        Seq                Done       >       [0xfaa3f0, line 0xfaa3c0] 1 cycles
160596175000: system.ruby.cp_cntrl0.sequencer: Cache miss at [0xfaa3f0, line 0xfaa3c0]
   160596175000   0   CorePair       Ifetch0_L1hit      S>S      [0xfaa3c0, line 0xfaa3c0] 
   160596175500   0        Seq               Begin       >       [0xfaa3f8, line 0xfaa3c0] IFETCH
   160596176000   2        Seq                Done       >       [0x53d78, line 0x53d40] 1 cycles
160596176000: system.ruby.cp_cntrl1.sequencer: Cache miss at [0x53d78, line 0x53d40]
   160596176000   1   CorePair       C0_Load_L1hit      S>S      [0x53d40, line 0x53d40] 
   160596176500   2        Seq               Begin       >       [0xca28a0, line 0xca2880] IFETCH
   160596177000   0        Seq                Done       >       [0xfaa3f8, line 0xfaa3c0] 1 cycles
160596177000: system.ruby.cp_cntrl0.sequencer: Cache miss at [0xfaa3f8, line 0xfaa3c0]
   160596177000   0   CorePair       Ifetch0_L1hit      S>S      [0xfaa3c0, line 0xfaa3c0] 
   160596177500   0        Seq               Begin       >       [0xf90c20, line 0xf90c00] IFETCH
   160596178000   2        Seq                Done       >       [0xca28a0, line 0xca2880] 1 cycles
160596178000: system.ruby.cp_cntrl1.sequencer: Cache miss at [0xca28a0, line 0xca2880]
   160596178000   1   CorePair       Ifetch0_L1hit      S>S      [0xca2880, line 0xca2880] 
   160596178500   2        Seq               Begin       >       [0xca28a0, line 0xca2880] IFETCH
   160596179000   0        Seq                Done       >       [0xf90c20, line 0xf90c00] 1 cycles
160596179000: system.ruby.cp_cntrl0.sequencer: Cache miss at [0xf90c20, line 0xf90c00]
   160596179000   0   CorePair       Ifetch0_L1hit      S>S      [0xf90c00, line 0xf90c00] 
   160596179500   0        Seq               Begin       >       [0xc62610, line 0xc62600] LD
   160596180000   2        Seq                Done       >       [0xca28a0, line 0xca2880] 1 cycles
160596180000: system.ruby.cp_cntrl1.sequencer: Cache miss at [0xca28a0, line 0xca2880]
   160596180000   1   CorePair       Ifetch0_L1hit      S>S      [0xca2880, line 0xca2880] 
   160596180500   2        Seq               Begin       >       [0x139d5c0, line 0x139d5c0] LD
   160596181000   0        Seq                Done       >       [0xc62610, line 0xc62600] 1 cycles
160596181000: system.ruby.cp_cntrl0.sequencer: Cache miss at [0xc62610, line 0xc62600]
   160596181000   0   CorePair       C0_Load_L1hit      S>S      [0xc62600, line 0xc62600] 
   160596181500   0        Seq               Begin       >       [0x13a9710, line 0x13a9700] IFETCH
   160596182000   2        Seq                Done       >       [0x139d5c0, line 0x139d5c0] 1 cycles
160596182000: system.ruby.cp_cntrl1.sequencer: Cache miss at [0x139d5c0, line 0x139d5c0]
   160596182000   1   CorePair       C0_Load_L1hit     M0>M0     [0x139d5c0, line 0x139d5c0] 
   160596182500   2        Seq               Begin       >       [0xca28a8, line 0xca2880] IFETCH
   160596183000   0        Seq                Done       >       [0x13a9710, line 0x13a9700] 1 cycles
160596183000: system.ruby.cp_cntrl0.sequencer: Cache miss at [0x13a9710, line 0x13a9700]
   160596183000   0   CorePair       Ifetch0_L1hit      S>S      [0x13a9700, line 0x13a9700] 
   160596183500   0        Seq               Begin       >       [0x13a9710, line 0x13a9700] IFETCH
   160596184000   2        Seq                Done       >       [0xca28a8, line 0xca2880] 1 cycles
160596184000: system.ruby.cp_cntrl1.sequencer: Cache miss at [0xca28a8, line 0xca2880]
   160596184000   1   CorePair       Ifetch0_L1hit      S>S      [0xca2880, line 0xca2880] 
   160596184500   2        Seq               Begin       >       [0xca28a8, line 0xca2880] IFETCH
   160596185000   0        Seq                Done       >       [0x13a9710, line 0x13a9700] 1 cycles
160596185000: system.ruby.cp_cntrl0.sequencer: Cache miss at [0x13a9710, line 0x13a9700]
   160596185000   0   CorePair       Ifetch0_L1hit      S>S      [0x13a9700, line 0x13a9700] 
   160596185500   0        Seq               Begin       >       [0x13a9718, line 0x13a9700] IFETCH
   160596186000   2        Seq                Done       >       [0xca28a8, line 0xca2880] 1 cycles
160596186000: system.ruby.cp_cntrl1.sequencer: Cache miss at [0xca28a8, line 0xca2880]
   160596186000   1   CorePair       Ifetch0_L1hit      S>S      [0xca2880, line 0xca2880] 
   160596186500   2        Seq               Begin       >       [0xca28a8, line 0xca2880] IFETCH
   160596187000   0        Seq                Done       >       [0x13a9718, line 0x13a9700] 1 cycles
160596187000: system.ruby.cp_cntrl0.sequencer: Cache miss at [0x13a9718, line 0x13a9700]
   160596187000   0   CorePair       Ifetch0_L1hit      S>S      [0x13a9700, line 0x13a9700] 
   160596187500   0        Seq               Begin       >       [0x13a9718, line 0x13a9700] IFETCH
   160596188000   2        Seq                Done       >       [0xca28a8, line 0xca2880] 1 cycles
160596188000: system.ruby.cp_cntrl1.sequencer: Cache miss at [0xca28a8, line 0xca2880]
   160596188000   1   CorePair       Ifetch0_L1hit      S>S      [0xca2880, line 0xca2880] 
   160596188500   2        Seq               Begin       >       [0xca28b0, line 0xca2880] IFETCH
   160596189000   0        Seq                Done       >       [0x13a9718, line 0x13a9700] 1 cycles
160596189000: system.ruby.cp_cntrl0.sequencer: Cache miss at [0x13a9718, line 0x13a9700]
   160596189000   0   CorePair       Ifetch0_L1hit      S>S      [0x13a9700, line 0x13a9700] 
   160596189500   0        Seq               Begin       >       [0x13a9718, line 0x13a9700] IFETCH
   160596190000   2        Seq                Done       >       [0xca28b0, line 0xca2880] 1 cycles
160596190000: system.ruby.cp_cntrl1.sequencer: Cache miss at [0xca28b0, line 0xca2880]
   160596190000   1   CorePair       Ifetch0_L1hit      S>S      [0xca2880, line 0xca2880] 
   160596190500   2        Seq               Begin       >       [0xca28b0, line 0xca2880] IFETCH
   160596191000   0        Seq                Done       >       [0x13a9718, line 0x13a9700] 1 cycles
160596191000: system.ruby.cp_cntrl0.sequencer: Cache miss at [0x13a9718, line 0x13a9700]
   160596191000   0   CorePair       Ifetch0_L1hit      S>S      [0x13a9700, line 0x13a9700] 
   160596191500   0        Seq               Begin       >       [0x13a9720, line 0x13a9700] IFETCH
   160596192000   2        Seq                Done       >       [0xca28b0, line 0xca2880] 1 cycles
160596192000: system.ruby.cp_cntrl1.sequencer: Cache miss at [0xca28b0, line 0xca2880]
   160596192000   1   CorePair       Ifetch0_L1hit      S>S      [0xca2880, line 0xca2880] 
   160596192500   2        Seq               Begin       >       [0xca28b0, line 0xca2880] IFETCH
   160596193000   0        Seq                Done       >       [0x13a9720, line 0x13a9700] 1 cycles
160596193000: system.ruby.cp_cntrl0.sequencer: Cache miss at [0x13a9720, line 0x13a9700]
   160596193000   0   CorePair       Ifetch0_L1hit      S>S      [0x13a9700, line 0x13a9700] 
   160596193500   0        Seq               Begin       >       [0x13a9720, line 0x13a9700] IFETCH
   160596194000   2        Seq                Done       >       [0xca28b0, line 0xca2880] 1 cycles
160596194000: system.ruby.cp_cntrl1.sequencer: Cache miss at [0xca28b0, line 0xca2880]
   160596194000   1   CorePair       Ifetch0_L1hit      S>S      [0xca2880, line 0xca2880] 
   160596194500   2        Seq               Begin       >       [0xca28b8, line 0xca2880] IFETCH
   160596195000   0        Seq                Done       >       [0x13a9720, line 0x13a9700] 1 cycles
160596195000: system.ruby.cp_cntrl0.sequencer: Cache miss at [0x13a9720, line 0x13a9700]
   160596195000   0   CorePair       Ifetch0_L1hit      S>S      [0x13a9700, line 0x13a9700] 
   160596195500   0        Seq               Begin       >       [0x13a9720, line 0x13a9700] IFETCH
   160596196000   2        Seq                Done       >       [0xca28b8, line 0xca2880] 1 cycles
160596196000: system.ruby.cp_cntrl1.sequencer: Cache miss at [0xca28b8, line 0xca2880]
   160596196000   1   CorePair       Ifetch0_L1hit      S>S      [0xca2880, line 0xca2880] 
   160596196500   2        Seq               Begin       >       [0x8f2d0, line 0x8f2c0] LD
   160596197000   0        Seq                Done       >       [0x13a9720, line 0x13a9700] 1 cycles
160596197000: system.ruby.cp_cntrl0.sequencer: Cache miss at [0x13a9720, line 0x13a9700]
   160596197000   0   CorePair       Ifetch0_L1hit      S>S      [0x13a9700, line 0x13a9700] 
   160596197500   0        Seq               Begin       >       [0x38b08, line 0x38b00] LD
   160596198000   2        Seq                Done       >       [0x8f2d0, line 0x8f2c0] 1 cycles
160596198000: system.ruby.cp_cntrl1.sequencer: Cache miss at [0x8f2d0, line 0x8f2c0]
   160596198000   1   CorePair       C0_Load_L1hit      S>S      [0x8f2c0, line 0x8f2c0] 
   160596198500   2        Seq               Begin       >       [0xca28b8, line 0xca2880] IFETCH
   160596199000   0        Seq                Done       >       [0x38b08, line 0x38b00] 1 cycles
160596199000: system.ruby.cp_cntrl0.sequencer: Cache miss at [0x38b08, line 0x38b00]
   160596199000   0   CorePair       C0_Load_L1hit     M0>M0     [0x38b00, line 0x38b00] 
   160596199500   0        Seq               Begin       >       [0x3faa740, line 0x3faa740] IFETCH
   160596200000   2        Seq                Done       >       [0xca28b8, line 0xca2880] 1 cycles
160596200000: system.ruby.cp_cntrl1.sequencer: Cache miss at [0xca28b8, line 0xca2880]
   160596200000   1   CorePair       Ifetch0_L1hit      S>S      [0xca2880, line 0xca2880] 
   160596200500   2        Seq               Begin       >       [0xca28b8, line 0xca2880] IFETCH
   160596201000   0        Seq                Done       >       [0x3faa740, line 0x3faa740] 1 cycles
160596201000: system.ruby.cp_cntrl0.sequencer: Cache miss at [0x3faa740, line 0x3faa740]
   160596201000   0   CorePair       Ifetch0_L1hit      S>S      [0x3faa740, line 0x3faa740] 
   160596201500   0        Seq               Begin       >       [0x10d9d98, line 0x10d9d80] LD
   160596202000   2        Seq                Done       >       [0xca28b8, line 0xca2880] 1 cycles
160596202000: system.ruby.cp_cntrl1.sequencer: Cache miss at [0xca28b8, line 0xca2880]
   160596202000   1   CorePair       Ifetch0_L1hit      S>S      [0xca2880, line 0xca2880] 
   160596202500   2        Seq               Begin       >       [0xca28c0, line 0xca28c0] IFETCH
   160596203000   0        Seq                Done       >       [0x10d9d98, line 0x10d9d80] 1 cycles
160596203000: system.ruby.cp_cntrl0.sequencer: Cache miss at [0x10d9d98, line 0x10d9d80]
   160596203000   0   CorePair       C0_Load_L1hit     M0>M0     [0x10d9d80, line 0x10d9d80] 
   160596203500   0        Seq               Begin       >       [0x3faa748, line 0x3faa740] IFETCH
   160596204000   2        Seq                Done       >       [0xca28c0, line 0xca28c0] 1 cycles
160596204000: system.ruby.cp_cntrl1.sequencer: Cache miss at [0xca28c0, line 0xca28c0]
   160596204000   1   CorePair       Ifetch0_L1hit      S>S      [0xca28c0, line 0xca28c0] 
   160596204500   2        Seq               Begin       >       [0xca28c0, line 0xca28c0] IFETCH
   160596205000   0        Seq                Done       >       [0x3faa748, line 0x3faa740] 1 cycles
160596205000: system.ruby.cp_cntrl0.sequencer: Cache miss at [0x3faa748, line 0x3faa740]
   160596205000   0   CorePair       Ifetch0_L1hit      S>S      [0x3faa740, line 0x3faa740] 
   160596205500   0        Seq               Begin       >       [0x3faa748, line 0x3faa740] IFETCH
   160596206000   2        Seq                Done       >       [0xca28c0, line 0xca28c0] 1 cycles
160596206000: system.ruby.cp_cntrl1.sequencer: Cache miss at [0xca28c0, line 0xca28c0]
   160596206000   1   CorePair       Ifetch0_L1hit      S>S      [0xca28c0, line 0xca28c0] 
   160596206500   2        Seq               Begin       >       [0x10ddae8, line 0x10ddac0] LD
   160596207000   0        Seq                Done       >       [0x3faa748, line 0x3faa740] 1 cycles
160596207000: system.ruby.cp_cntrl0.sequencer: Cache miss at [0x3faa748, line 0x3faa740]
   160596207000   0   CorePair       Ifetch0_L1hit      S>S      [0x3faa740, line 0x3faa740] 
   160596207500   0        Seq               Begin       >       [0x3faa740, line 0x3faa740] IFETCH
   160596208000   2        Seq                Done       >       [0x10ddae8, line 0x10ddac0] 1 cycles
160596208000: system.ruby.cp_cntrl1.sequencer: Cache miss at [0x10ddae8, line 0x10ddac0]
   160596208000   1   CorePair       C0_Load_L1hit      S>S      [0x10ddac0, line 0x10ddac0] 
   160596208500   2        Seq               Begin       >       [0xca28c0, line 0xca28c0] IFETCH
   160596209000   0        Seq                Done       >       [0x3faa740, line 0x3faa740] 1 cycles
160596209000: system.ruby.cp_cntrl0.sequencer: Cache miss at [0x3faa740, line 0x3faa740]
   160596209000   0   CorePair       Ifetch0_L1hit      S>S      [0x3faa740, line 0x3faa740] 
   160596209500   0        Seq               Begin       >       [0x38b08, line 0x38b00] ST
   160596210000   2        Seq                Done       >       [0xca28c0, line 0xca28c0] 1 cycles
160596210000: system.ruby.cp_cntrl1.sequencer: Cache miss at [0xca28c0, line 0xca28c0]
   160596210000   1   CorePair       Ifetch0_L1hit      S>S      [0xca28c0, line 0xca28c0] 
   160596210500   2        Seq               Begin       >       [0xca28c8, line 0xca28c0] IFETCH
   160596211000   0        Seq                Done       >       [0x38b08, line 0x38b00] 1 cycles
160596211000: system.ruby.cp_cntrl0.sequencer: Cache miss at [0x38b08, line 0x38b00]
   160596211000   0   CorePair      C0_Store_L1hit     M0>M0     [0x38b00, line 0x38b00] 
   160596211500   0        Seq               Begin       >       [0xfaa3f0, line 0xfaa3c0] IFETCH
   160596212000   2        Seq                Done       >       [0xca28c8, line 0xca28c0] 1 cycles
160596212000: system.ruby.cp_cntrl1.sequencer: Cache miss at [0xca28c8, line 0xca28c0]
   160596212000   1   CorePair       Ifetch0_L1hit      S>S      [0xca28c0, line 0xca28c0] 
   160596212500   2        Seq               Begin       >       [0xca28c8, line 0xca28c0] IFETCH
   160596213000   0        Seq                Done       >       [0xfaa3f0, line 0xfaa3c0] 1 cycles
160596213000: system.ruby.cp_cntrl0.sequencer: Cache miss at [0xfaa3f0, line 0xfaa3c0]
   160596213000   0   CorePair       Ifetch0_L1hit      S>S      [0xfaa3c0, line 0xfaa3c0] 
   160596213500   0        Seq               Begin       >       [0xfaa3f0, line 0xfaa3c0] IFETCH
   160596214000   2        Seq                Done       >       [0xca28c8, line 0xca28c0] 1 cycles
160596214000: system.ruby.cp_cntrl1.sequencer: Cache miss at [0xca28c8, line 0xca28c0]
   160596214000   1   CorePair       Ifetch0_L1hit      S>S      [0xca28c0, line 0xca28c0] 
   160596214500   2        Seq               Begin       >       [0xca28d0, line 0xca28c0] IFETCH
   160596215000   0        Seq                Done       >       [0xfaa3f0, line 0xfaa3c0] 1 cycles
160596215000: system.ruby.cp_cntrl0.sequencer: Cache miss at [0xfaa3f0, line 0xfaa3c0]
   160596215000   0   CorePair       Ifetch0_L1hit      S>S      [0xfaa3c0, line 0xfaa3c0] 
   160596215500   0        Seq               Begin       >       [0xfaa3f8, line 0xfaa3c0] IFETCH
   160596216000   2        Seq                Done       >       [0xca28d0, line 0xca28c0] 1 cycles
160596216000: system.ruby.cp_cntrl1.sequencer: Cache miss at [0xca28d0, line 0xca28c0]
   160596216000   1   CorePair       Ifetch0_L1hit      S>S      [0xca28c0, line 0xca28c0] 
   160596216500   2        Seq               Begin       >       [0xca28d0, line 0xca28c0] IFETCH
   160596217000   0        Seq                Done       >       [0xfaa3f8, line 0xfaa3c0] 1 cycles
160596217000: system.ruby.cp_cntrl0.sequencer: Cache miss at [0xfaa3f8, line 0xfaa3c0]
   160596217000   0   CorePair       Ifetch0_L1hit      S>S      [0xfaa3c0, line 0xfaa3c0] 
   160596217500   0        Seq               Begin       >       [0xf90c20, line 0xf90c00] IFETCH
   160596218000   2        Seq                Done       >       [0xca28d0, line 0xca28c0] 1 cycles
160596218000: system.ruby.cp_cntrl1.sequencer: Cache miss at [0xca28d0, line 0xca28c0]
   160596218000   1   CorePair       Ifetch0_L1hit      S>S      [0xca28c0, line 0xca28c0] 
   160596218500   2        Seq               Begin       >       [0x13998d0, line 0x13998c0] LD
   160596219000   0        Seq                Done       >       [0xf90c20, line 0xf90c00] 1 cycles
160596219000: system.ruby.cp_cntrl0.sequencer: Cache miss at [0xf90c20, line 0xf90c00]
   160596219000   0   CorePair       Ifetch0_L1hit      S>S      [0xf90c00, line 0xf90c00] 
   160596219135   0        TCC               RdBlk      I>IV     [0x3eb7000, line 0x3eb7000] 
   160596219500   0        Seq               Begin       >       [0xc62610, line 0xc62600] LD
   160596220000   1   CorePair           L1D0_Repl      S>S      [0x518c0, line 0x518c0] 
   160596220000   1   CorePair      C0_Load_L1miss     M0>M0_F   [0x13998c0, line 0x13998c0] 
   160596221000   0        Seq                Done       >       [0xc62610, line 0xc62600] 1 cycles
160596221000: system.ruby.cp_cntrl0.sequencer: Cache miss at [0xc62610, line 0xc62600]
   160596221000   0   CorePair       C0_Load_L1hit      S>S      [0xc62600, line 0xc62600] 
   160596221500   0        Seq               Begin       >       [0x13a9710, line 0x13a9700] IFETCH
   160596223000   0        Seq                Done       >       [0x13a9710, line 0x13a9700] 1 cycles
160596223000: system.ruby.cp_cntrl0.sequencer: Cache miss at [0x13a9710, line 0x13a9700]
   160596223000   0   CorePair       Ifetch0_L1hit      S>S      [0x13a9700, line 0x13a9700] 
   160596223500   0        Seq               Begin       >       [0x13a9710, line 0x13a9700] IFETCH
   160596225000   0        Seq                Done       >       [0x13a9710, line 0x13a9700] 1 cycles
160596225000: system.ruby.cp_cntrl0.sequencer: Cache miss at [0x13a9710, line 0x13a9700]
   160596225000   0   CorePair       Ifetch0_L1hit      S>S      [0x13a9700, line 0x13a9700] 
   160596225500   0        Seq               Begin       >       [0x13a9718, line 0x13a9700] IFETCH
   160596227000   0        Seq                Done       >       [0x13a9718, line 0x13a9700] 1 cycles
160596227000: system.ruby.cp_cntrl0.sequencer: Cache miss at [0x13a9718, line 0x13a9700]
   160596227000   0   CorePair       Ifetch0_L1hit      S>S      [0x13a9700, line 0x13a9700] 
   160596227500   0        Seq               Begin       >       [0x13a9718, line 0x13a9700] IFETCH
   160596229000   0        Seq                Done       >       [0x13a9718, line 0x13a9700] 1 cycles
160596229000: system.ruby.cp_cntrl0.sequencer: Cache miss at [0x13a9718, line 0x13a9700]
   160596229000   0   CorePair       Ifetch0_L1hit      S>S      [0x13a9700, line 0x13a9700] 
   160596229500   0        Seq               Begin       >       [0x13a9718, line 0x13a9700] IFETCH
   160596231000   0        Seq                Done       >       [0x13a9718, line 0x13a9700] 1 cycles
160596231000: system.ruby.cp_cntrl0.sequencer: Cache miss at [0x13a9718, line 0x13a9700]
   160596231000   0   CorePair       Ifetch0_L1hit      S>S      [0x13a9700, line 0x13a9700] 
   160596231500   0        Seq               Begin       >       [0x13a9720, line 0x13a9700] IFETCH
   160596233000   0        Seq                Done       >       [0x13a9720, line 0x13a9700] 1 cycles
160596233000: system.ruby.cp_cntrl0.sequencer: Cache miss at [0x13a9720, line 0x13a9700]
   160596233000   0   CorePair       Ifetch0_L1hit      S>S      [0x13a9700, line 0x13a9700] 
   160596233500   0        Seq               Begin       >       [0x13a9720, line 0x13a9700] IFETCH
   160596235000   0        Seq                Done       >       [0x13a9720, line 0x13a9700] 1 cycles
160596235000: system.ruby.cp_cntrl0.sequencer: Cache miss at [0x13a9720, line 0x13a9700]
   160596235000   0   CorePair       Ifetch0_L1hit      S>S      [0x13a9700, line 0x13a9700] 
   160596235500   0        Seq               Begin       >       [0x13a9720, line 0x13a9700] IFETCH
   160596237000   0        Seq                Done       >       [0x13a9720, line 0x13a9700] 1 cycles
160596237000: system.ruby.cp_cntrl0.sequencer: Cache miss at [0x13a9720, line 0x13a9700]
   160596237000   0   CorePair       Ifetch0_L1hit      S>S      [0x13a9700, line 0x13a9700] 
   160596237500   0        Seq               Begin       >       [0x38b08, line 0x38b00] LD
   160596238000   2        Seq                Done       >       [0x13998d0, line 0x13998c0] 19 cycles
160596238000: system.ruby.cp_cntrl1.sequencer: Cache miss at [0x13998d0, line 0x13998c0]
   160596238000   1   CorePair          L2_to_L1D0   M0_F>M0     [0x13998c0, line 0x13998c0] 
   160596238500   2        Seq               Begin       >       [0xca28d0, line 0xca28c0] IFETCH
   160596239000   0        Seq                Done       >       [0x38b08, line 0x38b00] 1 cycles
160596239000: system.ruby.cp_cntrl0.sequencer: Cache miss at [0x38b08, line 0x38b00]
   160596239000   0   CorePair       C0_Load_L1hit     M0>M0     [0x38b00, line 0x38b00] 
   160596239500   0        Seq               Begin       >       [0x3faa740, line 0x3faa740] IFETCH
   160596240000   2        Seq                Done       >       [0xca28d0, line 0xca28c0] 1 cycles
160596240000: system.ruby.cp_cntrl1.sequencer: Cache miss at [0xca28d0, line 0xca28c0]
   160596240000   1   CorePair       Ifetch0_L1hit      S>S      [0xca28c0, line 0xca28c0] 
   160596240500   2        Seq               Begin       >       [0xca28d8, line 0xca28c0] IFETCH
   160596241000   0        Seq                Done       >       [0x3faa740, line 0x3faa740] 1 cycles
160596241000: system.ruby.cp_cntrl0.sequencer: Cache miss at [0x3faa740, line 0x3faa740]
   160596241000   0   CorePair       Ifetch0_L1hit      S>S      [0x3faa740, line 0x3faa740] 
   160596241500   0        Seq               Begin       >       [0x10d9d98, line 0x10d9d80] LD
   160596242000   2        Seq                Done       >       [0xca28d8, line 0xca28c0] 1 cycles
160596242000: system.ruby.cp_cntrl1.sequencer: Cache miss at [0xca28d8, line 0xca28c0]
   160596242000   1   CorePair       Ifetch0_L1hit      S>S      [0xca28c0, line 0xca28c0] 
   160596242500   2        Seq               Begin       >       [0x8f2e0, line 0x8f2c0] LD
   160596243000   0        Seq                Done       >       [0x10d9d98, line 0x10d9d80] 1 cycles
160596243000: system.ruby.cp_cntrl0.sequencer: Cache miss at [0x10d9d98, line 0x10d9d80]
   160596243000   0   CorePair       C0_Load_L1hit     M0>M0     [0x10d9d80, line 0x10d9d80] 
   160596243500   0        Seq               Begin       >       [0x3faa748, line 0x3faa740] IFETCH
   160596244000   2        Seq                Done       >       [0x8f2e0, line 0x8f2c0] 1 cycles
160596244000: system.ruby.cp_cntrl1.sequencer: Cache miss at [0x8f2e0, line 0x8f2c0]
   160596244000   1   CorePair       C0_Load_L1hit      S>S      [0x8f2c0, line 0x8f2c0] 
   160596244500   2        Seq               Begin       >       [0xca28d8, line 0xca28c0] IFETCH
   160596245000   0        Seq                Done       >       [0x3faa748, line 0x3faa740] 1 cycles
160596245000: system.ruby.cp_cntrl0.sequencer: Cache miss at [0x3faa748, line 0x3faa740]
   160596245000   0   CorePair       Ifetch0_L1hit      S>S      [0x3faa740, line 0x3faa740] 
   160596245500   0        Seq               Begin       >       [0x3faa748, line 0x3faa740] IFETCH
   160596246000   2        Seq                Done       >       [0xca28d8, line 0xca28c0] 1 cycles
160596246000: system.ruby.cp_cntrl1.sequencer: Cache miss at [0xca28d8, line 0xca28c0]
   160596246000   1   CorePair       Ifetch0_L1hit      S>S      [0xca28c0, line 0xca28c0] 
   160596246500   2        Seq               Begin       >       [0xca28d8, line 0xca28c0] IFETCH
   160596247000   0        Seq                Done       >       [0x3faa748, line 0x3faa740] 1 cycles
160596247000: system.ruby.cp_cntrl0.sequencer: Cache miss at [0x3faa748, line 0x3faa740]
   160596247000   0   CorePair       Ifetch0_L1hit      S>S      [0x3faa740, line 0x3faa740] 
   160596247500   0        Seq               Begin       >       [0x3faa740, line 0x3faa740] IFETCH
   160596248000   2        Seq                Done       >       [0xca28d8, line 0xca28c0] 1 cycles
160596248000: system.ruby.cp_cntrl1.sequencer: Cache miss at [0xca28d8, line 0xca28c0]
   160596248000   1   CorePair       Ifetch0_L1hit      S>S      [0xca28c0, line 0xca28c0] 
   160596248500   2        Seq               Begin       >       [0xca28e0, line 0xca28c0] IFETCH
   160596249000   0        Seq                Done       >       [0x3faa740, line 0x3faa740] 1 cycles
160596249000: system.ruby.cp_cntrl0.sequencer: Cache miss at [0x3faa740, line 0x3faa740]
   160596249000   0   CorePair       Ifetch0_L1hit      S>S      [0x3faa740, line 0x3faa740] 
   160596249500   0        Seq               Begin       >       [0x38b08, line 0x38b00] ST
   160596250000   2        Seq                Done       >       [0xca28e0, line 0xca28c0] 1 cycles
160596250000: system.ruby.cp_cntrl1.sequencer: Cache miss at [0xca28e0, line 0xca28c0]
   160596250000   1   CorePair       Ifetch0_L1hit      S>S      [0xca28c0, line 0xca28c0] 
   160596250500   2        Seq               Begin       >       [0xca2af8, line 0xca2ac0] IFETCH
   160596251000   0        Seq                Done       >       [0x38b08, line 0x38b00] 1 cycles
160596251000: system.ruby.cp_cntrl0.sequencer: Cache miss at [0x38b08, line 0x38b00]
   160596251000   0   CorePair      C0_Store_L1hit     M0>M0     [0x38b00, line 0x38b00] 
   160596251500   0        Seq               Begin       >       [0xfaa3f0, line 0xfaa3c0] IFETCH
   160596252000   2        Seq                Done       >       [0xca2af8, line 0xca2ac0] 1 cycles
160596252000: system.ruby.cp_cntrl1.sequencer: Cache miss at [0xca2af8, line 0xca2ac0]
   160596252000   1   CorePair       Ifetch0_L1hit      S>S      [0xca2ac0, line 0xca2ac0] 
   160596252500   2        Seq               Begin       >       [0xca2af8, line 0xca2ac0] IFETCH
   160596253000   0        Seq                Done       >       [0xfaa3f0, line 0xfaa3c0] 1 cycles
160596253000: system.ruby.cp_cntrl0.sequencer: Cache miss at [0xfaa3f0, line 0xfaa3c0]
   160596253000   0   CorePair       Ifetch0_L1hit      S>S      [0xfaa3c0, line 0xfaa3c0] 
   160596253500   0        Seq               Begin       >       [0xfaa3f0, line 0xfaa3c0] IFETCH
   160596254000   2        Seq                Done       >       [0xca2af8, line 0xca2ac0] 1 cycles
160596254000: system.ruby.cp_cntrl1.sequencer: Cache miss at [0xca2af8, line 0xca2ac0]
   160596254000   1   CorePair       Ifetch0_L1hit      S>S      [0xca2ac0, line 0xca2ac0] 
   160596254500   2        Seq               Begin       >       [0xca2b00, line 0xca2b00] IFETCH
   160596255000   0        Seq                Done       >       [0xfaa3f0, line 0xfaa3c0] 1 cycles
160596255000: system.ruby.cp_cntrl0.sequencer: Cache miss at [0xfaa3f0, line 0xfaa3c0]
   160596255000   0   CorePair       Ifetch0_L1hit      S>S      [0xfaa3c0, line 0xfaa3c0] 
   160596255500   0        Seq               Begin       >       [0xfaa3f8, line 0xfaa3c0] IFETCH
   160596256000   2        Seq                Done       >       [0xca2b00, line 0xca2b00] 1 cycles
160596256000: system.ruby.cp_cntrl1.sequencer: Cache miss at [0xca2b00, line 0xca2b00]
   160596256000   1   CorePair       Ifetch0_L1hit      S>S      [0xca2b00, line 0xca2b00] 
   160596256500   2        Seq               Begin       >       [0x10ddae8, line 0x10ddac0] ST
   160596257000   0        Seq                Done       >       [0xfaa3f8, line 0xfaa3c0] 1 cycles
160596257000: system.ruby.cp_cntrl0.sequencer: Cache miss at [0xfaa3f8, line 0xfaa3c0]
   160596257000   0   CorePair       Ifetch0_L1hit      S>S      [0xfaa3c0, line 0xfaa3c0] 
   160596257500   0        Seq               Begin       >       [0xf90c20, line 0xf90c00] IFETCH
   160596258000   1   CorePair      C0_Store_L1hit      S>S_M0   [0x10ddac0, line 0x10ddac0] 
   160596259000   0        Seq                Done       >       [0xf90c20, line 0xf90c00] 1 cycles
160596259000: system.ruby.cp_cntrl0.sequencer: Cache miss at [0xf90c20, line 0xf90c00]
   160596259000   0   CorePair       Ifetch0_L1hit      S>S      [0xf90c00, line 0xf90c00] 
   160596259500   0        Seq               Begin       >       [0xc62610, line 0xc62600] LD
   160596261000   0        Seq                Done       >       [0xc62610, line 0xc62600] 1 cycles
160596261000: system.ruby.cp_cntrl0.sequencer: Cache miss at [0xc62610, line 0xc62600]
   160596261000   0   CorePair       C0_Load_L1hit      S>S      [0xc62600, line 0xc62600] 
   160596261500   0        Seq               Begin       >       [0x13a9710, line 0x13a9700] IFETCH
   160596263000   0        Seq                Done       >       [0x13a9710, line 0x13a9700] 1 cycles
160596263000: system.ruby.cp_cntrl0.sequencer: Cache miss at [0x13a9710, line 0x13a9700]
   160596263000   0   CorePair       Ifetch0_L1hit      S>S      [0x13a9700, line 0x13a9700] 
   160596263500   0        Seq               Begin       >       [0x13a9710, line 0x13a9700] IFETCH
   160596265000   0        Seq                Done       >       [0x13a9710, line 0x13a9700] 1 cycles
160596265000: system.ruby.cp_cntrl0.sequencer: Cache miss at [0x13a9710, line 0x13a9700]
   160596265000   0   CorePair       Ifetch0_L1hit      S>S      [0x13a9700, line 0x13a9700] 
   160596265500   0        Seq               Begin       >       [0x13a9718, line 0x13a9700] IFETCH
   160596267000   0        Seq                Done       >       [0x13a9718, line 0x13a9700] 1 cycles
160596267000: system.ruby.cp_cntrl0.sequencer: Cache miss at [0x13a9718, line 0x13a9700]
   160596267000   0   CorePair       Ifetch0_L1hit      S>S      [0x13a9700, line 0x13a9700] 
   160596267500   0        Seq               Begin       >       [0x13a9718, line 0x13a9700] IFETCH
   160596269000   0        Seq                Done       >       [0x13a9718, line 0x13a9700] 1 cycles
160596269000: system.ruby.cp_cntrl0.sequencer: Cache miss at [0x13a9718, line 0x13a9700]
   160596269000   0   CorePair       Ifetch0_L1hit      S>S      [0x13a9700, line 0x13a9700] 
   160596269500   0        Seq               Begin       >       [0x13a9718, line 0x13a9700] IFETCH
   160596271000   0        Seq                Done       >       [0x13a9718, line 0x13a9700] 1 cycles
160596271000: system.ruby.cp_cntrl0.sequencer: Cache miss at [0x13a9718, line 0x13a9700]
   160596271000   0   CorePair       Ifetch0_L1hit      S>S      [0x13a9700, line 0x13a9700] 
   160596271500   0        Seq               Begin       >       [0x13a9720, line 0x13a9700] IFETCH
   160596273000   0        Seq                Done       >       [0x13a9720, line 0x13a9700] 1 cycles
160596273000: system.ruby.cp_cntrl0.sequencer: Cache miss at [0x13a9720, line 0x13a9700]
   160596273000   0   CorePair       Ifetch0_L1hit      S>S      [0x13a9700, line 0x13a9700] 
   160596273500   0        Seq               Begin       >       [0x13a9720, line 0x13a9700] IFETCH
   160596275000   0        Seq                Done       >       [0x13a9720, line 0x13a9700] 1 cycles
160596275000: system.ruby.cp_cntrl0.sequencer: Cache miss at [0x13a9720, line 0x13a9700]
   160596275000   0   CorePair       Ifetch0_L1hit      S>S      [0x13a9700, line 0x13a9700] 
   160596275500   0        Seq               Begin       >       [0x13a9720, line 0x13a9700] IFETCH
   160596277000   0        Seq                Done       >       [0x13a9720, line 0x13a9700] 1 cycles
160596277000: system.ruby.cp_cntrl0.sequencer: Cache miss at [0x13a9720, line 0x13a9700]
   160596277000   0   CorePair       Ifetch0_L1hit      S>S      [0x13a9700, line 0x13a9700] 
   160596277500   0        Seq               Begin       >       [0x38b08, line 0x38b00] LD
   160596279000   0        Seq                Done       >       [0x38b08, line 0x38b00] 1 cycles
160596279000: system.ruby.cp_cntrl0.sequencer: Cache miss at [0x38b08, line 0x38b00]
   160596279000   0   CorePair       C0_Load_L1hit     M0>M0     [0x38b00, line 0x38b00] 
   160596279500   0        Seq               Begin       >       [0x3faa740, line 0x3faa740] IFETCH
   160596281000   0        Seq                Done       >       [0x3faa740, line 0x3faa740] 1 cycles
160596281000: system.ruby.cp_cntrl0.sequencer: Cache miss at [0x3faa740, line 0x3faa740]
   160596281000   0   CorePair       Ifetch0_L1hit      S>S      [0x3faa740, line 0x3faa740] 
   160596281500   0        Seq               Begin       >       [0x10d9d98, line 0x10d9d80] LD
   160596283000   0        Seq                Done       >       [0x10d9d98, line 0x10d9d80] 1 cycles
160596283000: system.ruby.cp_cntrl0.sequencer: Cache miss at [0x10d9d98, line 0x10d9d80]
   160596283000   0   CorePair       C0_Load_L1hit     M0>M0     [0x10d9d80, line 0x10d9d80] 
   160596283500   0        Seq               Begin       >       [0x3faa748, line 0x3faa740] IFETCH
   160596285000   0        Seq                Done       >       [0x3faa748, line 0x3faa740] 1 cycles
160596285000: system.ruby.cp_cntrl0.sequencer: Cache miss at [0x3faa748, line 0x3faa740]
   160596285000   0   CorePair       Ifetch0_L1hit      S>S      [0x3faa740, line 0x3faa740] 
   160596285500   0        Seq               Begin       >       [0x3faa748, line 0x3faa740] IFETCH
   160596287000   0        Seq                Done       >       [0x3faa748, line 0x3faa740] 1 cycles
160596287000: system.ruby.cp_cntrl0.sequencer: Cache miss at [0x3faa748, line 0x3faa740]
   160596287000   0   CorePair       Ifetch0_L1hit      S>S      [0x3faa740, line 0x3faa740] 
   160596287500   0        Seq               Begin       >       [0x3faa740, line 0x3faa740] IFETCH
   160596289000   0        Seq                Done       >       [0x3faa740, line 0x3faa740] 1 cycles
160596289000: system.ruby.cp_cntrl0.sequencer: Cache miss at [0x3faa740, line 0x3faa740]
   160596289000   0   CorePair       Ifetch0_L1hit      S>S      [0x3faa740, line 0x3faa740] 
   160596289500   0        Seq               Begin       >       [0x38b08, line 0x38b00] ST
   160596290000  62  Directory               RdBlk      U>B_PM   [0x3eb7000, line 0x3eb7000]  sc: Acks remaining: 2
   160596291000   0        Seq                Done       >       [0x38b08, line 0x38b00] 1 cycles
160596291000: system.ruby.cp_cntrl0.sequencer: Cache miss at [0x38b08, line 0x38b00]
   160596291000   0   CorePair      C0_Store_L1hit     M0>M0     [0x38b00, line 0x38b00] 
   160596291500   0        Seq               Begin       >       [0xfaa3f0, line 0xfaa3c0] IFETCH
   160596293000   0        Seq                Done       >       [0xfaa3f0, line 0xfaa3c0] 1 cycles
160596293000: system.ruby.cp_cntrl0.sequencer: Cache miss at [0xfaa3f0, line 0xfaa3c0]
   160596293000   0   CorePair       Ifetch0_L1hit      S>S      [0xfaa3c0, line 0xfaa3c0] 
   160596293500   0        Seq               Begin       >       [0xfaa3f0, line 0xfaa3c0] IFETCH
   160596295000   0        Seq                Done       >       [0xfaa3f0, line 0xfaa3c0] 1 cycles
160596295000: system.ruby.cp_cntrl0.sequencer: Cache miss at [0xfaa3f0, line 0xfaa3c0]
   160596295000   0   CorePair       Ifetch0_L1hit      S>S      [0xfaa3c0, line 0xfaa3c0] 
   160596295500   0        Seq               Begin       >       [0xfaa3f8, line 0xfaa3c0] IFETCH
   160596297000   0        Seq                Done       >       [0xfaa3f8, line 0xfaa3c0] 1 cycles
160596297000: system.ruby.cp_cntrl0.sequencer: Cache miss at [0xfaa3f8, line 0xfaa3c0]
   160596297000   0   CorePair       Ifetch0_L1hit      S>S      [0xfaa3c0, line 0xfaa3c0] 
   160596297500   0        Seq               Begin       >       [0xf90c20, line 0xf90c00] IFETCH
   160596299000   0        Seq                Done       >       [0xf90c20, line 0xf90c00] 1 cycles
160596299000: system.ruby.cp_cntrl0.sequencer: Cache miss at [0xf90c20, line 0xf90c00]
   160596299000   0   CorePair       Ifetch0_L1hit      S>S      [0xf90c00, line 0xf90c00] 
   160596299500   0        Seq               Begin       >       [0xc62610, line 0xc62600] LD
   160596301000   0        Seq                Done       >       [0xc62610, line 0xc62600] 1 cycles
160596301000: system.ruby.cp_cntrl0.sequencer: Cache miss at [0xc62610, line 0xc62600]
   160596301000   0   CorePair       C0_Load_L1hit      S>S      [0xc62600, line 0xc62600] 
   160596301500   0        Seq               Begin       >       [0x13a9710, line 0x13a9700] IFETCH
   160596302000  62  Directory             MemData   B_PM>B_Pm   [0x3eb7000, line 0x3eb7000] 
   160596303000   0        Seq                Done       >       [0x13a9710, line 0x13a9700] 1 cycles
160596303000: system.ruby.cp_cntrl0.sequencer: Cache miss at [0x13a9710, line 0x13a9700]
   160596303000   0   CorePair       Ifetch0_L1hit      S>S      [0x13a9700, line 0x13a9700] 
   160596303500   0        Seq               Begin       >       [0x13a9710, line 0x13a9700] IFETCH
   160596305000   0        Seq                Done       >       [0x13a9710, line 0x13a9700] 1 cycles
160596305000: system.ruby.cp_cntrl0.sequencer: Cache miss at [0x13a9710, line 0x13a9700]
   160596305000   0   CorePair       Ifetch0_L1hit      S>S      [0x13a9700, line 0x13a9700] 
   160596305500   0        Seq               Begin       >       [0x13a9718, line 0x13a9700] IFETCH
   160596307000   0        Seq                Done       >       [0x13a9718, line 0x13a9700] 1 cycles
160596307000: system.ruby.cp_cntrl0.sequencer: Cache miss at [0x13a9718, line 0x13a9700]
   160596307000   0   CorePair       Ifetch0_L1hit      S>S      [0x13a9700, line 0x13a9700] 
   160596307500   0        Seq               Begin       >       [0x13a9718, line 0x13a9700] IFETCH
   160596309000   0        Seq                Done       >       [0x13a9718, line 0x13a9700] 1 cycles
160596309000: system.ruby.cp_cntrl0.sequencer: Cache miss at [0x13a9718, line 0x13a9700]
   160596309000   0   CorePair       Ifetch0_L1hit      S>S      [0x13a9700, line 0x13a9700] 
   160596309500   0        Seq               Begin       >       [0x13a9718, line 0x13a9700] IFETCH
   160596311000   0        Seq                Done       >       [0x13a9718, line 0x13a9700] 1 cycles
160596311000: system.ruby.cp_cntrl0.sequencer: Cache miss at [0x13a9718, line 0x13a9700]
   160596311000   0   CorePair       Ifetch0_L1hit      S>S      [0x13a9700, line 0x13a9700] 
   160596311500   0        Seq               Begin       >       [0x13a9720, line 0x13a9700] IFETCH
   160596313000   0        Seq                Done       >       [0x13a9720, line 0x13a9700] 1 cycles
160596313000: system.ruby.cp_cntrl0.sequencer: Cache miss at [0x13a9720, line 0x13a9700]
   160596313000   0   CorePair       Ifetch0_L1hit      S>S      [0x13a9700, line 0x13a9700] 
   160596313500   0        Seq               Begin       >       [0x13a9720, line 0x13a9700] IFETCH
   160596315000   0        Seq                Done       >       [0x13a9720, line 0x13a9700] 1 cycles
160596315000: system.ruby.cp_cntrl0.sequencer: Cache miss at [0x13a9720, line 0x13a9700]
   160596315000   0   CorePair       Ifetch0_L1hit      S>S      [0x13a9700, line 0x13a9700] 
   160596315500   0        Seq               Begin       >       [0x13a9720, line 0x13a9700] IFETCH
   160596317000   0        Seq                Done       >       [0x13a9720, line 0x13a9700] 1 cycles
160596317000: system.ruby.cp_cntrl0.sequencer: Cache miss at [0x13a9720, line 0x13a9700]
   160596317000   0   CorePair       Ifetch0_L1hit      S>S      [0x13a9700, line 0x13a9700] 
   160596317500   0        Seq               Begin       >       [0x38b08, line 0x38b00] LD
   160596319000   0        Seq                Done       >       [0x38b08, line 0x38b00] 1 cycles
160596319000: system.ruby.cp_cntrl0.sequencer: Cache miss at [0x38b08, line 0x38b00]
   160596319000   0   CorePair       C0_Load_L1hit     M0>M0     [0x38b00, line 0x38b00] 
   160596319500   0        Seq               Begin       >       [0x3faa740, line 0x3faa740] IFETCH
   160596321000   0        Seq                Done       >       [0x3faa740, line 0x3faa740] 1 cycles
160596321000: system.ruby.cp_cntrl0.sequencer: Cache miss at [0x3faa740, line 0x3faa740]
   160596321000   0   CorePair       Ifetch0_L1hit      S>S      [0x3faa740, line 0x3faa740] 
   160596321500   0        Seq               Begin       >       [0x10d9d98, line 0x10d9d80] LD
   160596323000   0        Seq                Done       >       [0x10d9d98, line 0x10d9d80] 1 cycles
160596323000: system.ruby.cp_cntrl0.sequencer: Cache miss at [0x10d9d98, line 0x10d9d80]
   160596323000   0   CorePair       C0_Load_L1hit     M0>M0     [0x10d9d80, line 0x10d9d80] 
   160596323500   0        Seq               Begin       >       [0x3faa748, line 0x3faa740] IFETCH
   160596324000   0   CorePair          PrbShrData      I>I      [0x3eb7000, line 0x3eb7000] 
   160596324000   1   CorePair          PrbShrData     M0>O      [0x3eb7000, line 0x3eb7000] 
   160596325000   0        Seq                Done       >       [0x3faa748, line 0x3faa740] 1 cycles
160596325000: system.ruby.cp_cntrl0.sequencer: Cache miss at [0x3faa748, line 0x3faa740]
   160596325000   0   CorePair       Ifetch0_L1hit      S>S      [0x3faa740, line 0x3faa740] 
   160596325500   0        Seq               Begin       >       [0x3faa748, line 0x3faa740] IFETCH
   160596327000   0        Seq                Done       >       [0x3faa748, line 0x3faa740] 1 cycles
160596327000: system.ruby.cp_cntrl0.sequencer: Cache miss at [0x3faa748, line 0x3faa740]
   160596327000   0   CorePair       Ifetch0_L1hit      S>S      [0x3faa740, line 0x3faa740] 
   160596327500   0        Seq               Begin       >       [0x3faa740, line 0x3faa740] IFETCH
   160596329000   0        Seq                Done       >       [0x3faa740, line 0x3faa740] 1 cycles
160596329000: system.ruby.cp_cntrl0.sequencer: Cache miss at [0x3faa740, line 0x3faa740]
   160596329000   0   CorePair       Ifetch0_L1hit      S>S      [0x3faa740, line 0x3faa740] 
   160596329500   0        Seq               Begin       >       [0x38b08, line 0x38b00] ST
   160596331000   0        Seq                Done       >       [0x38b08, line 0x38b00] 1 cycles
160596331000: system.ruby.cp_cntrl0.sequencer: Cache miss at [0x38b08, line 0x38b00]
   160596331000   0   CorePair      C0_Store_L1hit     M0>M0     [0x38b00, line 0x38b00] 
   160596331500   0        Seq               Begin       >       [0xfaa3f0, line 0xfaa3c0] IFETCH
   160596333000   0        Seq                Done       >       [0xfaa3f0, line 0xfaa3c0] 1 cycles
160596333000: system.ruby.cp_cntrl0.sequencer: Cache miss at [0xfaa3f0, line 0xfaa3c0]
   160596333000   0   CorePair       Ifetch0_L1hit      S>S      [0xfaa3c0, line 0xfaa3c0] 
   160596333500   0        Seq               Begin       >       [0xfaa3f0, line 0xfaa3c0] IFETCH
   160596335000   0        Seq                Done       >       [0xfaa3f0, line 0xfaa3c0] 1 cycles
160596335000: system.ruby.cp_cntrl0.sequencer: Cache miss at [0xfaa3f0, line 0xfaa3c0]
   160596335000   0   CorePair       Ifetch0_L1hit      S>S      [0xfaa3c0, line 0xfaa3c0] 
   160596335500   0        Seq               Begin       >       [0xfaa3f8, line 0xfaa3c0] IFETCH
   160596337000   0        Seq                Done       >       [0xfaa3f8, line 0xfaa3c0] 1 cycles
160596337000: system.ruby.cp_cntrl0.sequencer: Cache miss at [0xfaa3f8, line 0xfaa3c0]
   160596337000   0   CorePair       Ifetch0_L1hit      S>S      [0xfaa3c0, line 0xfaa3c0] 
   160596337500   0        Seq               Begin       >       [0xf90c20, line 0xf90c00] IFETCH
   160596339000   0        Seq                Done       >       [0xf90c20, line 0xf90c00] 1 cycles
160596339000: system.ruby.cp_cntrl0.sequencer: Cache miss at [0xf90c20, line 0xf90c00]
   160596339000   0   CorePair       Ifetch0_L1hit      S>S      [0xf90c00, line 0xf90c00] 
   160596339500   0        Seq               Begin       >       [0xc62610, line 0xc62600] LD
   160596341000   0        Seq                Done       >       [0xc62610, line 0xc62600] 1 cycles
160596341000: system.ruby.cp_cntrl0.sequencer: Cache miss at [0xc62610, line 0xc62600]
   160596341000   0   CorePair       C0_Load_L1hit      S>S      [0xc62600, line 0xc62600] 
   160596341500   0        Seq               Begin       >       [0x13a9710, line 0x13a9700] IFETCH
   160596343000   0        Seq                Done       >       [0x13a9710, line 0x13a9700] 1 cycles
160596343000: system.ruby.cp_cntrl0.sequencer: Cache miss at [0x13a9710, line 0x13a9700]
   160596343000   0   CorePair       Ifetch0_L1hit      S>S      [0x13a9700, line 0x13a9700] 
   160596343500   0        Seq               Begin       >       [0x13a9710, line 0x13a9700] IFETCH
   160596345000   0        Seq                Done       >       [0x13a9710, line 0x13a9700] 1 cycles
160596345000: system.ruby.cp_cntrl0.sequencer: Cache miss at [0x13a9710, line 0x13a9700]
   160596345000   0   CorePair       Ifetch0_L1hit      S>S      [0x13a9700, line 0x13a9700] 
   160596345500   0        Seq               Begin       >       [0x13a9718, line 0x13a9700] IFETCH
   160596347000   0        Seq                Done       >       [0x13a9718, line 0x13a9700] 1 cycles
160596347000: system.ruby.cp_cntrl0.sequencer: Cache miss at [0x13a9718, line 0x13a9700]
   160596347000   0   CorePair       Ifetch0_L1hit      S>S      [0x13a9700, line 0x13a9700] 
   160596347500   0        Seq               Begin       >       [0x13a9718, line 0x13a9700] IFETCH
   160596349000   0        Seq                Done       >       [0x13a9718, line 0x13a9700] 1 cycles
160596349000: system.ruby.cp_cntrl0.sequencer: Cache miss at [0x13a9718, line 0x13a9700]
   160596349000   0   CorePair       Ifetch0_L1hit      S>S      [0x13a9700, line 0x13a9700] 
   160596349500   0        Seq               Begin       >       [0x13a9718, line 0x13a9700] IFETCH
   160596351000   0        Seq                Done       >       [0x13a9718, line 0x13a9700] 1 cycles
160596351000: system.ruby.cp_cntrl0.sequencer: Cache miss at [0x13a9718, line 0x13a9700]
   160596351000   0   CorePair       Ifetch0_L1hit      S>S      [0x13a9700, line 0x13a9700] 
   160596351500   0        Seq               Begin       >       [0x13a9720, line 0x13a9700] IFETCH
   160596353000   0        Seq                Done       >       [0x13a9720, line 0x13a9700] 1 cycles
160596353000: system.ruby.cp_cntrl0.sequencer: Cache miss at [0x13a9720, line 0x13a9700]
   160596353000   0   CorePair       Ifetch0_L1hit      S>S      [0x13a9700, line 0x13a9700] 
   160596353500   0        Seq               Begin       >       [0x13a9720, line 0x13a9700] IFETCH
   160596355000   0        Seq                Done       >       [0x13a9720, line 0x13a9700] 1 cycles
160596355000: system.ruby.cp_cntrl0.sequencer: Cache miss at [0x13a9720, line 0x13a9700]
   160596355000   0   CorePair       Ifetch0_L1hit      S>S      [0x13a9700, line 0x13a9700] 
   160596355500   0        Seq               Begin       >       [0x13a9720, line 0x13a9700] IFETCH
   160596357000   0        Seq                Done       >       [0x13a9720, line 0x13a9700] 1 cycles
160596357000: system.ruby.cp_cntrl0.sequencer: Cache miss at [0x13a9720, line 0x13a9700]
   160596357000   0   CorePair       Ifetch0_L1hit      S>S      [0x13a9700, line 0x13a9700] 
   160596357500   0        Seq               Begin       >       [0x38b08, line 0x38b00] LD
   160596359000   0        Seq                Done       >       [0x38b08, line 0x38b00] 1 cycles
160596359000: system.ruby.cp_cntrl0.sequencer: Cache miss at [0x38b08, line 0x38b00]
   160596359000   0   CorePair       C0_Load_L1hit     M0>M0     [0x38b00, line 0x38b00] 
   160596359500   0        Seq               Begin       >       [0x3faa740, line 0x3faa740] IFETCH
   160596361000   0        Seq                Done       >       [0x3faa740, line 0x3faa740] 1 cycles
160596361000: system.ruby.cp_cntrl0.sequencer: Cache miss at [0x3faa740, line 0x3faa740]
   160596361000   0   CorePair       Ifetch0_L1hit      S>S      [0x3faa740, line 0x3faa740] 
   160596361500   0        Seq               Begin       >       [0x10d9d98, line 0x10d9d80] LD
   160596363000   0        Seq                Done       >       [0x10d9d98, line 0x10d9d80] 1 cycles
160596363000: system.ruby.cp_cntrl0.sequencer: Cache miss at [0x10d9d98, line 0x10d9d80]
   160596363000   0   CorePair       C0_Load_L1hit     M0>M0     [0x10d9d80, line 0x10d9d80] 
   160596363500   0        Seq               Begin       >       [0x3faa748, line 0x3faa740] IFETCH
   160596365000   0        Seq                Done       >       [0x3faa748, line 0x3faa740] 1 cycles
160596365000: system.ruby.cp_cntrl0.sequencer: Cache miss at [0x3faa748, line 0x3faa740]
   160596365000   0   CorePair       Ifetch0_L1hit      S>S      [0x3faa740, line 0x3faa740] 
   160596365500   0        Seq               Begin       >       [0x3faa748, line 0x3faa740] IFETCH
   160596367000   0        Seq                Done       >       [0x3faa748, line 0x3faa740] 1 cycles
160596367000: system.ruby.cp_cntrl0.sequencer: Cache miss at [0x3faa748, line 0x3faa740]
   160596367000   0   CorePair       Ifetch0_L1hit      S>S      [0x3faa740, line 0x3faa740] 
   160596367500   0        Seq               Begin       >       [0x3faa740, line 0x3faa740] IFETCH
   160596369000   0        Seq                Done       >       [0x3faa740, line 0x3faa740] 1 cycles
160596369000: system.ruby.cp_cntrl0.sequencer: Cache miss at [0x3faa740, line 0x3faa740]
   160596369000   0   CorePair       Ifetch0_L1hit      S>S      [0x3faa740, line 0x3faa740] 
   160596369500   0        Seq               Begin       >       [0x38b08, line 0x38b00] ST
   160596371000   0        Seq                Done       >       [0x38b08, line 0x38b00] 1 cycles
160596371000: system.ruby.cp_cntrl0.sequencer: Cache miss at [0x38b08, line 0x38b00]
   160596371000   0   CorePair      C0_Store_L1hit     M0>M0     [0x38b00, line 0x38b00] 
   160596371500   0        Seq               Begin       >       [0xfaa3f0, line 0xfaa3c0] IFETCH
   160596373000   0        Seq                Done       >       [0xfaa3f0, line 0xfaa3c0] 1 cycles
160596373000: system.ruby.cp_cntrl0.sequencer: Cache miss at [0xfaa3f0, line 0xfaa3c0]
   160596373000   0   CorePair       Ifetch0_L1hit      S>S      [0xfaa3c0, line 0xfaa3c0] 
   160596373500   0        Seq               Begin       >       [0xfaa3f0, line 0xfaa3c0] IFETCH
   160596375000   0        Seq                Done       >       [0xfaa3f0, line 0xfaa3c0] 1 cycles
160596375000: system.ruby.cp_cntrl0.sequencer: Cache miss at [0xfaa3f0, line 0xfaa3c0]
   160596375000   0   CorePair       Ifetch0_L1hit      S>S      [0xfaa3c0, line 0xfaa3c0] 
   160596375500   0        Seq               Begin       >       [0xfaa3f8, line 0xfaa3c0] IFETCH
[...]
   160600361000   0        Seq                Done       >       [0x3faa740, line 0x3faa740] 1 cycles
160600361000: system.ruby.cp_cntrl0.sequencer: Cache miss at [0x3faa740, line 0x3faa740]
   160600361000   0   CorePair       Ifetch0_L1hit      S>S      [0x3faa740, line 0x3faa740] 
   160600361000   2        Seq                Done       >       [0x3fb1140, line 0x3fb1140] 1 cycles
160600361000: system.ruby.cp_cntrl1.sequencer: Cache miss at [0x3fb1140, line 0x3fb1140]
   160600361000   1   CorePair       Ifetch0_L1hit      S>S      [0x3fb1140, line 0x3fb1140] 
   160600361500   0        Seq               Begin       >       [0x10d9d98, line 0x10d9d80] LD
   160600361500   2        Seq               Begin       >       [0x3fb1148, line 0x3fb1140] IFETCH
   160600363000   2        Seq                Done       >       [0x3fb1148, line 0x3fb1140] 1 cycles
160600363000: system.ruby.cp_cntrl1.sequencer: Cache miss at [0x3fb1148, line 0x3fb1140]
   160600363000   1   CorePair       Ifetch0_L1hit      S>S      [0x3fb1140, line 0x3fb1140] 
   160600363000   0        Seq                Done       >       [0x10d9d98, line 0x10d9d80] 1 cycles
160600363000: system.ruby.cp_cntrl0.sequencer: Cache miss at [0x10d9d98, line 0x10d9d80]
   160600363000   0   CorePair       C0_Load_L1hit     M0>M0     [0x10d9d80, line 0x10d9d80] 
   160600363500   2        Seq               Begin       >       [0x3fb1148, line 0x3fb1140] IFETCH
   160600363500   0        Seq               Begin       >       [0x3faa748, line 0x3faa740] IFETCH
   160600365000   0        Seq                Done       >       [0x3faa748, line 0x3faa740] 1 cycles
160600365000: system.ruby.cp_cntrl0.sequencer: Cache miss at [0x3faa748, line 0x3faa740]
   160600365000   0   CorePair       Ifetch0_L1hit      S>S      [0x3faa740, line 0x3faa740] 
   160600365000   2        Seq                Done       >       [0x3fb1148, line 0x3fb1140] 1 cycles
160600365000: system.ruby.cp_cntrl1.sequencer: Cache miss at [0x3fb1148, line 0x3fb1140]
   160600365000   1   CorePair       Ifetch0_L1hit      S>S      [0x3fb1140, line 0x3fb1140] 
   160600365500   0        Seq               Begin       >       [0x3faa748, line 0x3faa740] IFETCH
   160600365500   2        Seq               Begin       >       [0x3fb1148, line 0x3fb1140] IFETCH
   160600367000   2        Seq                Done       >       [0x3fb1148, line 0x3fb1140] 1 cycles
160600367000: system.ruby.cp_cntrl1.sequencer: Cache miss at [0x3fb1148, line 0x3fb1140]
   160600367000   1   CorePair       Ifetch0_L1hit      S>S      [0x3fb1140, line 0x3fb1140] 
   160600367000   0        Seq                Done       >       [0x3faa748, line 0x3faa740] 1 cycles
160600367000: system.ruby.cp_cntrl0.sequencer: Cache miss at [0x3faa748, line 0x3faa740]
   160600367000   0   CorePair       Ifetch0_L1hit      S>S      [0x3faa740, line 0x3faa740] 
   160600367500   2        Seq               Begin       >       [0xc4e8f8, line 0xc4e8c0] LD
   160600367500   0        Seq               Begin       >       [0x3faa740, line 0x3faa740] IFETCH
   160600369000   0        Seq                Done       >       [0x3faa740, line 0x3faa740] 1 cycles
160600369000: system.ruby.cp_cntrl0.sequencer: Cache miss at [0x3faa740, line 0x3faa740]
   160600369000   0   CorePair       Ifetch0_L1hit      S>S      [0x3faa740, line 0x3faa740] 
   160600369000   2        Seq                Done       >       [0xc4e8f8, line 0xc4e8c0] 1 cycles
160600369000: system.ruby.cp_cntrl1.sequencer: Cache miss at [0xc4e8f8, line 0xc4e8c0]
   160600369000   1   CorePair       C0_Load_L1hit      S>S      [0xc4e8c0, line 0xc4e8c0] 
   160600369500   0        Seq               Begin       >       [0x38b08, line 0x38b00] ST
   160600369500   2        Seq               Begin       >       [0x139ebd8, line 0x139ebc0] ST
   160600371000   2        Seq                Done       >       [0x139ebd8, line 0x139ebc0] 1 cycles
160600371000: system.ruby.cp_cntrl1.sequencer: Cache miss at [0x139ebd8, line 0x139ebc0]
   160600371000   1   CorePair      C0_Store_L1hit     M0>M0     [0x139ebc0, line 0x139ebc0] 
   160600371000   0        Seq                Done       >       [0x38b08, line 0x38b00] 1 cycles
160600371000: system.ruby.cp_cntrl0.sequencer: Cache miss at [0x38b08, line 0x38b00]
   160600371000   0   CorePair      C0_Store_L1hit     M0>M0     [0x38b00, line 0x38b00] 
   160600371500   2        Seq               Begin       >       [0x13b2990, line 0x13b2980] IFETCH
   160600371500   0        Seq               Begin       >       [0xfaa3f0, line 0xfaa3c0] IFETCH
   160600373000   0        Seq                Done       >       [0xfaa3f0, line 0xfaa3c0] 1 cycles
160600373000: system.ruby.cp_cntrl0.sequencer: Cache miss at [0xfaa3f0, line 0xfaa3c0]
   160600373000   0   CorePair       Ifetch0_L1hit      S>S      [0xfaa3c0, line 0xfaa3c0] 
   160600373000   2        Seq                Done       >       [0x13b2990, line 0x13b2980] 1 cycles
160600373000: system.ruby.cp_cntrl1.sequencer: Cache miss at [0x13b2990, line 0x13b2980]
   160600373000   1   CorePair       Ifetch0_L1hit      S>S      [0x13b2980, line 0x13b2980] 
   160600373500   0        Seq               Begin       >       [0xfaa3f0, line 0xfaa3c0] IFETCH
   160600373500   2        Seq               Begin       >       [0x13b2990, line 0x13b2980] IFETCH
   160600375000   2        Seq                Done       >       [0x13b2990, line 0x13b2980] 1 cycles
160600375000: system.ruby.cp_cntrl1.sequencer: Cache miss at [0x13b2990, line 0x13b2980]
   160600375000   1   CorePair       Ifetch0_L1hit      S>S      [0x13b2980, line 0x13b2980] 
   160600375000   0        Seq                Done       >       [0xfaa3f0, line 0xfaa3c0] 1 cycles
160600375000: system.ruby.cp_cntrl0.sequencer: Cache miss at [0xfaa3f0, line 0xfaa3c0]
   160600375000   0   CorePair       Ifetch0_L1hit      S>S      [0xfaa3c0, line 0xfaa3c0] 
   160600375500   2        Seq               Begin       >       [0x13b2998, line 0x13b2980] IFETCH
   160600375500   0        Seq               Begin       >       [0xfaa3f8, line 0xfaa3c0] IFETCH
   160600377000   0        Seq                Done       >       [0xfaa3f8, line 0xfaa3c0] 1 cycles
160600377000: system.ruby.cp_cntrl0.sequencer: Cache miss at [0xfaa3f8, line 0xfaa3c0]
   160600377000   0   CorePair       Ifetch0_L1hit      S>S      [0xfaa3c0, line 0xfaa3c0] 
   160600377000   2        Seq                Done       >       [0x13b2998, line 0x13b2980] 1 cycles
160600377000: system.ruby.cp_cntrl1.sequencer: Cache miss at [0x13b2998, line 0x13b2980]
   160600377000   1   CorePair       Ifetch0_L1hit      S>S      [0x13b2980, line 0x13b2980] 
   160600377500   0        Seq               Begin       >       [0xf90c20, line 0xf90c00] IFETCH
   160600377500   2        Seq               Begin       >       [0x13b18c0, line 0x13b18c0] LD
   160600379000   2        Seq                Done       >       [0x13b18c0, line 0x13b18c0] 1 cycles
160600379000: system.ruby.cp_cntrl1.sequencer: Cache miss at [0x13b18c0, line 0x13b18c0]
   160600379000   1   CorePair       C0_Load_L1hit     M0>M0     [0x13b18c0, line 0x13b18c0] 
   160600379000   0        Seq                Done       >       [0xf90c20, line 0xf90c00] 1 cycles
160600379000: system.ruby.cp_cntrl0.sequencer: Cache miss at [0xf90c20, line 0xf90c00]
   160600379000   0   CorePair       Ifetch0_L1hit      S>S      [0xf90c00, line 0xf90c00] 
   160600379500   2        Seq               Begin       >       [0x13b2998, line 0x13b2980] IFETCH
   160600379500   0        Seq               Begin       >       [0xc62610, line 0xc62600] LD
   160600381000   0        Seq                Done       >       [0xc62610, line 0xc62600] 1 cycles
160600381000: system.ruby.cp_cntrl0.sequencer: Cache miss at [0xc62610, line 0xc62600]
   160600381000   0   CorePair       C0_Load_L1hit      S>S      [0xc62600, line 0xc62600] 
   160600381000   2        Seq                Done       >       [0x13b2998, line 0x13b2980] 1 cycles
160600381000: system.ruby.cp_cntrl1.sequencer: Cache miss at [0x13b2998, line 0x13b2980]
   160600381000   1   CorePair       Ifetch0_L1hit      S>S      [0x13b2980, line 0x13b2980] 
   160600381500   0        Seq               Begin       >       [0x13a9710, line 0x13a9700] IFETCH
   160600381500   2        Seq               Begin       >       [0x13b2998, line 0x13b2980] IFETCH
   160600383000   2        Seq                Done       >       [0x13b2998, line 0x13b2980] 1 cycles
160600383000: system.ruby.cp_cntrl1.sequencer: Cache miss at [0x13b2998, line 0x13b2980]
   160600383000   1   CorePair       Ifetch0_L1hit      S>S      [0x13b2980, line 0x13b2980] 
   160600383000   0        Seq                Done       >       [0x13a9710, line 0x13a9700] 1 cycles
160600383000: system.ruby.cp_cntrl0.sequencer: Cache miss at [0x13a9710, line 0x13a9700]
   160600383000   0   CorePair       Ifetch0_L1hit      S>S      [0x13a9700, line 0x13a9700] 
   160600383500   2        Seq               Begin       >       [0x13b29a0, line 0x13b2980] IFETCH
   160600383500   0        Seq               Begin       >       [0x13a9710, line 0x13a9700] IFETCH
   160600385000   0        Seq                Done       >       [0x13a9710, line 0x13a9700] 1 cycles
160600385000: system.ruby.cp_cntrl0.sequencer: Cache miss at [0x13a9710, line 0x13a9700]
   160600385000   0   CorePair       Ifetch0_L1hit      S>S      [0x13a9700, line 0x13a9700] 
   160600385000   2        Seq                Done       >       [0x13b29a0, line 0x13b2980] 1 cycles
160600385000: system.ruby.cp_cntrl1.sequencer: Cache miss at [0x13b29a0, line 0x13b2980]
   160600385000   1   CorePair       Ifetch0_L1hit      S>S      [0x13b2980, line 0x13b2980] 
   160600385500   0        Seq               Begin       >       [0x13a9718, line 0x13a9700] IFETCH
   160600385500   2        Seq               Begin       >       [0xc4e8c0, line 0xc4e8c0] LD
   160600387000   2        Seq                Done       >       [0xc4e8c0, line 0xc4e8c0] 1 cycles
160600387000: system.ruby.cp_cntrl1.sequencer: Cache miss at [0xc4e8c0, line 0xc4e8c0]
   160600387000   1   CorePair       C0_Load_L1hit      S>S      [0xc4e8c0, line 0xc4e8c0] 
   160600387000   0        Seq                Done       >       [0x13a9718, line 0x13a9700] 1 cycles
160600387000: system.ruby.cp_cntrl0.sequencer: Cache miss at [0x13a9718, line 0x13a9700]
   160600387000   0   CorePair       Ifetch0_L1hit      S>S      [0x13a9700, line 0x13a9700] 
   160600387500   2        Seq               Begin       >       [0x13b29a0, line 0x13b2980] IFETCH
   160600387500   0        Seq               Begin       >       [0x13a9718, line 0x13a9700] IFETCH
   160600389000   0        Seq                Done       >       [0x13a9718, line 0x13a9700] 1 cycles
160600389000: system.ruby.cp_cntrl0.sequencer: Cache miss at [0x13a9718, line 0x13a9700]
   160600389000   0   CorePair       Ifetch0_L1hit      S>S      [0x13a9700, line 0x13a9700] 
   160600389000   2        Seq                Done       >       [0x13b29a0, line 0x13b2980] 1 cycles
160600389000: system.ruby.cp_cntrl1.sequencer: Cache miss at [0x13b29a0, line 0x13b2980]
   160600389000   1   CorePair       Ifetch0_L1hit      S>S      [0x13b2980, line 0x13b2980] 
   160600389500   0        Seq               Begin       >       [0x13a9718, line 0x13a9700] IFETCH
   160600389500   2        Seq               Begin       >       [0x13b2810, line 0x13b2800] IFETCH
   160600391000   2        Seq                Done       >       [0x13b2810, line 0x13b2800] 1 cycles
160600391000: system.ruby.cp_cntrl1.sequencer: Cache miss at [0x13b2810, line 0x13b2800]
   160600391000   1   CorePair       Ifetch0_L1hit      S>S      [0x13b2800, line 0x13b2800] 
   160600391000   0        Seq                Done       >       [0x13a9718, line 0x13a9700] 1 cycles
160600391000: system.ruby.cp_cntrl0.sequencer: Cache miss at [0x13a9718, line 0x13a9700]
   160600391000   0   CorePair       Ifetch0_L1hit      S>S      [0x13a9700, line 0x13a9700] 
   160600391500   2        Seq               Begin       >       [0x13b2810, line 0x13b2800] IFETCH
   160600391500   0        Seq               Begin       >       [0x13a9720, line 0x13a9700] IFETCH
   160600393000   0        Seq                Done       >       [0x13a9720, line 0x13a9700] 1 cycles
160600393000: system.ruby.cp_cntrl0.sequencer: Cache miss at [0x13a9720, line 0x13a9700]
   160600393000   0   CorePair       Ifetch0_L1hit      S>S      [0x13a9700, line 0x13a9700] 
   160600393000   2        Seq                Done       >       [0x13b2810, line 0x13b2800] 1 cycles
160600393000: system.ruby.cp_cntrl1.sequencer: Cache miss at [0x13b2810, line 0x13b2800]
   160600393000   1   CorePair       Ifetch0_L1hit      S>S      [0x13b2800, line 0x13b2800] 
   160600393500   0        Seq               Begin       >       [0x13a9720, line 0x13a9700] IFETCH
   160600393500   2        Seq               Begin       >       [0x13b193c, line 0x13b1900] LD
   160600395000   2        Seq                Done       >       [0x13b193c, line 0x13b1900] 1 cycles
160600395000: system.ruby.cp_cntrl1.sequencer: Cache miss at [0x13b193c, line 0x13b1900]
   160600395000   1   CorePair       C0_Load_L1hit     M0>M0     [0x13b1900, line 0x13b1900] 
   160600395000   0        Seq                Done       >       [0x13a9720, line 0x13a9700] 1 cycles
160600395000: system.ruby.cp_cntrl0.sequencer: Cache miss at [0x13a9720, line 0x13a9700]
   160600395000   0   CorePair       Ifetch0_L1hit      S>S      [0x13a9700, line 0x13a9700] 
   160600395500   2        Seq               Begin       >       [0x13b2818, line 0x13b2800] IFETCH
   160600395500   0        Seq               Begin       >       [0x13a9720, line 0x13a9700] IFETCH
   160600397000   0        Seq                Done       >       [0x13a9720, line 0x13a9700] 1 cycles
160600397000: system.ruby.cp_cntrl0.sequencer: Cache miss at [0x13a9720, line 0x13a9700]
   160600397000   0   CorePair       Ifetch0_L1hit      S>S      [0x13a9700, line 0x13a9700] 
   160600397000   2        Seq                Done       >       [0x13b2818, line 0x13b2800] 1 cycles
160600397000: system.ruby.cp_cntrl1.sequencer: Cache miss at [0x13b2818, line 0x13b2800]
   160600397000   1   CorePair       Ifetch0_L1hit      S>S      [0x13b2800, line 0x13b2800] 
   160600397500   0        Seq               Begin       >       [0x38b08, line 0x38b00] LD
   160600397500   2        Seq               Begin       >       [0x139ebd0, line 0x139ebc0] ST
   160600399000   2        Seq                Done       >       [0x139ebd0, line 0x139ebc0] 1 cycles
160600399000: system.ruby.cp_cntrl1.sequencer: Cache miss at [0x139ebd0, line 0x139ebc0]
   160600399000   1   CorePair      C0_Store_L1hit     M0>M0     [0x139ebc0, line 0x139ebc0] 
   160600399000   0        Seq                Done       >       [0x38b08, line 0x38b00] 1 cycles
160600399000: system.ruby.cp_cntrl0.sequencer: Cache miss at [0x38b08, line 0x38b00]
   160600399000   0   CorePair       C0_Load_L1hit     M0>M0     [0x38b00, line 0x38b00] 
   160600399500   2        Seq               Begin       >       [0x13b2818, line 0x13b2800] IFETCH
   160600399500   0        Seq               Begin       >       [0x3faa740, line 0x3faa740] IFETCH
   160600401000   0        Seq                Done       >       [0x3faa740, line 0x3faa740] 1 cycles
160600401000: system.ruby.cp_cntrl0.sequencer: Cache miss at [0x3faa740, line 0x3faa740]
   160600401000   0   CorePair       Ifetch0_L1hit      S>S      [0x3faa740, line 0x3faa740] 
   160600401000   2        Seq                Done       >       [0x13b2818, line 0x13b2800] 1 cycles
160600401000: system.ruby.cp_cntrl1.sequencer: Cache miss at [0x13b2818, line 0x13b2800]
   160600401000   1   CorePair       Ifetch0_L1hit      S>S      [0x13b2800, line 0x13b2800] 
   160600401500   0        Seq               Begin       >       [0x10d9d98, line 0x10d9d80] LD
   160600401500   2        Seq               Begin       >       [0x13b2818, line 0x13b2800] IFETCH
   160600403000   2        Seq                Done       >       [0x13b2818, line 0x13b2800] 1 cycles
160600403000: system.ruby.cp_cntrl1.sequencer: Cache miss at [0x13b2818, line 0x13b2800]
   160600403000   1   CorePair       Ifetch0_L1hit      S>S      [0x13b2800, line 0x13b2800] 
   160600403000   0        Seq                Done       >       [0x10d9d98, line 0x10d9d80] 1 cycles
160600403000: system.ruby.cp_cntrl0.sequencer: Cache miss at [0x10d9d98, line 0x10d9d80]
   160600403000   0   CorePair       C0_Load_L1hit     M0>M0     [0x10d9d80, line 0x10d9d80] 
   160600403500   2        Seq               Begin       >       [0x139ebc8, line 0x139ebc0] ST
   160600403500   0        Seq               Begin       >       [0x3faa748, line 0x3faa740] IFETCH
   160600405000   0        Seq                Done       >       [0x3faa748, line 0x3faa740] 1 cycles
160600405000: system.ruby.cp_cntrl0.sequencer: Cache miss at [0x3faa748, line 0x3faa740]
   160600405000   0   CorePair       Ifetch0_L1hit      S>S      [0x3faa740, line 0x3faa740] 
   160600405000   2        Seq                Done       >       [0x139ebc8, line 0x139ebc0] 1 cycles
160600405000: system.ruby.cp_cntrl1.sequencer: Cache miss at [0x139ebc8, line 0x139ebc0]
   160600405000   1   CorePair      C0_Store_L1hit     M0>M0     [0x139ebc0, line 0x139ebc0] 
   160600405500   0        Seq               Begin       >       [0x3faa748, line 0x3faa740] IFETCH
   160600405500   2        Seq               Begin       >       [0x13b2818, line 0x13b2800] IFETCH
   160600407000   2        Seq                Done       >       [0x13b2818, line 0x13b2800] 1 cycles
160600407000: system.ruby.cp_cntrl1.sequencer: Cache miss at [0x13b2818, line 0x13b2800]
   160600407000   1   CorePair       Ifetch0_L1hit      S>S      [0x13b2800, line 0x13b2800] 
   160600407000   0        Seq                Done       >       [0x3faa748, line 0x3faa740] 1 cycles
160600407000: system.ruby.cp_cntrl0.sequencer: Cache miss at [0x3faa748, line 0x3faa740]
   160600407000   0   CorePair       Ifetch0_L1hit      S>S      [0x3faa740, line 0x3faa740] 
   160600407500   2        Seq               Begin       >       [0x139ebc0, line 0x139ebc0] ST
   160600407500   0        Seq               Begin       >       [0x3faa740, line 0x3faa740] IFETCH
   160600409000   0        Seq                Done       >       [0x3faa740, line 0x3faa740] 1 cycles
160600409000: system.ruby.cp_cntrl0.sequencer: Cache miss at [0x3faa740, line 0x3faa740]
   160600409000   0   CorePair       Ifetch0_L1hit      S>S      [0x3faa740, line 0x3faa740] 
   160600409000   2        Seq                Done       >       [0x139ebc0, line 0x139ebc0] 1 cycles
160600409000: system.ruby.cp_cntrl1.sequencer: Cache miss at [0x139ebc0, line 0x139ebc0]
   160600409000   1   CorePair      C0_Store_L1hit     M0>M0     [0x139ebc0, line 0x139ebc0] 
   160600409500   0        Seq               Begin       >       [0x38b08, line 0x38b00] ST
   160600409500   2        Seq               Begin       >       [0x13b2818, line 0x13b2800] IFETCH
   160600411000   2        Seq                Done       >       [0x13b2818, line 0x13b2800] 1 cycles
160600411000: system.ruby.cp_cntrl1.sequencer: Cache miss at [0x13b2818, line 0x13b2800]
   160600411000   1   CorePair       Ifetch0_L1hit      S>S      [0x13b2800, line 0x13b2800] 
   160600411000   0        Seq                Done       >       [0x38b08, line 0x38b00] 1 cycles
160600411000: system.ruby.cp_cntrl0.sequencer: Cache miss at [0x38b08, line 0x38b00]
   160600411000   0   CorePair      C0_Store_L1hit     M0>M0     [0x38b00, line 0x38b00] 
   160600411500   2        Seq               Begin       >       [0x13b2820, line 0x13b2800] IFETCH
   160600411500   0        Seq               Begin       >       [0xfaa3f0, line 0xfaa3c0] IFETCH
Dummy value = 0
Ticks: 167668328500
Exiting because  exiting with last active thread context
