Global frequency set at 1000000000000 ticks per second
Forcing maxCoalescedReqs to 32 (TLB assoc.) 
Forcing maxCoalescedReqs to 32 (TLB assoc.) 
Forcing maxCoalescedReqs to 32 (TLB assoc.) 
Forcing maxCoalescedReqs to 32 (TLB assoc.) 
Forcing maxCoalescedReqs to 32 (TLB assoc.) 
Forcing maxCoalescedReqs to 32 (TLB assoc.) 
Forcing maxCoalescedReqs to 32 (TLB assoc.) 
Forcing maxCoalescedReqs to 32 (TLB assoc.) 
gem5 Simulator System.  https://www.gem5.org
gem5 is copyrighted software; use the --copyright option for details.

gem5 version DEVELOP-FOR-23.1
gem5 compiled Nov  7 2023 04:34:30
gem5 started Nov  7 2023 05:04:03
gem5 executing on ca5d80be0ed9, pid 1
command line: build/VEGA_X86/gem5.opt --debug-flag=RubyHitMiss,ProtocolTrace --debug-start=160596105001 --debug-end=160600412715 configs/example/apu_se.py -n 3 --dgpu --gfx-version=gfx900 --num-compute-units=4 --cu-per-sa=4 --num-gpu-complex=1 --reg-alloc-policy=dynamic --num-tccs=8 --num-dirs=64 --mem-size=16GB --mem-type=HBM_2000_4H_1x64 --vreg-file-size=16384 --sreg-file-size=800 --tcc-size=256kB --gpu-clock=1801MHz --ruby-clock=1000MHz --vrf_lm_bus_latency=6 --mem-req-latency=69 --mem-resp-latency=69 --mandatory_queue_latency=1 --max-cu-tokens=160 --max-coalesces-per-cycle=10 --sqc-size=16kB --tcp-size=512B --scalar-mem-req-latency=28 --TCP_latency=4 --tcp-assoc=4 --tcp-num-banks=16 --TCC_latency=121 --tcc-assoc=16 --tcc-tag-access-latency=1 --tcc-data-access-latency=1 --tcp-rp=FIFORP --WB_L2 --tcc-rp=FIFORP -c test-rp

info: Standard input is not a terminal, disabling listeners.
Num SQC =  1 Num scalar caches =  1 Num CU =  4
0x7ffee6dd1000, 0x7fffffffebe0
   160596105500   0        Seq               Begin       >       [0xc62610, line 0xc62600] LD
   160596107000   0        Seq                Done       >       [0xc62610, line 0xc62600] 1 cycles
160596107000: system.ruby.cp_cntrl0.sequencer: Cache miss at [0xc62610, line 0xc62600]
   160596107000   0   CorePair       C0_Load_L1hit      S>S      [0xc62600, line 0xc62600] 
160596107000: system.dma_cntrl1: MOESI_AMD_Base-dma.sm:142: [DMARequestMsg: Type = READ PhysicalAddress = [0x294c088, line 0x294c080] LineAddress = [0x294c080, line 0x294c080] Requestor = DMA-1 Destination = [NetDest (20)  -  -  -  - 0 0 0 0 0 0 0 0 0 0 0 0 0 0 0 0 0 0 0 0 0 0 0 0 0 0 0 0 0 0 0 0 0 0 0 0 0 0 0 0 0 0 0 1 0 0 0 0 0 0 0 0 0 0 0 0 0 0 0 0 0 0 0 0  - 0 0  -  -  -  - 0 0  - 0 0 0 0  - 0 0 0 0 0 0 0 0  -  - 0 0  -  -  -  -  -  -  - ] DataBlk = [ 0x0 0x0 0x0 0x0 0x0 0x0 0x0 0x0 0x0 0x0 0x0 0x0 0x0 0x0 0x0 0x0 0x0 0x0 0x0 0x0 0x0 0x0 0x0 0x0 0x0 0x0 0x0 0x0 0x0 0x0 0x0 0x0 0x0 0x0 0x0 0x0 0x0 0x0 0x0 0x0 0x0 0x0 0x0 0x0 0x0 0x0 0x0 0x0 0x0 0x0 0x0 0x0 0x0 0x0 0x0 0x0 0x0 0x0 0x0 0x0 0x0 0x0 0x0 0x0 ] Len = 4 MessageSize = Writeback_Control ]
   160596107000   1        DMA         ReadRequest  READY>BUSY_RD [0x294c080, line 0x294c080] 
   160596107500   0        Seq               Begin       >       [0x13a9710, line 0x13a9700] IFETCH
   160596109000   0        Seq                Done       >       [0x13a9710, line 0x13a9700] 1 cycles
160596109000: system.ruby.cp_cntrl0.sequencer: Cache miss at [0x13a9710, line 0x13a9700]
   160596109000   0   CorePair       Ifetch0_L1hit      S>S      [0x13a9700, line 0x13a9700] 
   160596109500   0        Seq               Begin       >       [0x13a9710, line 0x13a9700] IFETCH
   160596111000   0        Seq                Done       >       [0x13a9710, line 0x13a9700] 1 cycles
160596111000: system.ruby.cp_cntrl0.sequencer: Cache miss at [0x13a9710, line 0x13a9700]
   160596111000   0   CorePair       Ifetch0_L1hit      S>S      [0x13a9700, line 0x13a9700] 
   160596111500   0        Seq               Begin       >       [0x13a9718, line 0x13a9700] IFETCH
   160596113000   0        Seq                Done       >       [0x13a9718, line 0x13a9700] 1 cycles
160596113000: system.ruby.cp_cntrl0.sequencer: Cache miss at [0x13a9718, line 0x13a9700]
   160596113000   0   CorePair       Ifetch0_L1hit      S>S      [0x13a9700, line 0x13a9700] 
   160596113500   0        Seq               Begin       >       [0x13a9718, line 0x13a9700] IFETCH
   160596114000  17  Directory          CPUPrbResp  BS_Pm>BS_Pm  [0x13ad080, line 0x13ad080]  Acks remaining: 0 Check: Acks remaining: 0
160596115000: system.ruby.dir_cntrl17: MOESI_AMD_Base-dir.sm:1054: [MemoryMsg: addr = [0x13ad080, line 0x13ad080] Type = MEMORY_WB Sender = Directory-17 OriginalRequestorMachId = NULL-0 DataBlk = [ 0x0 0x0 0x0 0x0 0x0 0x0 0x0 0x0 0x0 0x0 0x0 0x0 0x0 0x0 0x0 0x0 0x0 0x0 0x0 0x0 0x0 0x0 0x0 0x0 0x0 0x0 0x0 0x0 0x0 0x0 0x0 0x0 0x0 0x0 0x0 0x0 0x0 0x0 0x0 0x0 0x0 0x0 0x0 0x0 0x0 0x0 0x0 0x0 0x0 0x0 0x0 0x0 0x0 0x0 0x0 0x0 0x0 0x0 0x0 0x0 0x0 0x0 0x0 0x0 ] MessageSize = Writeback_Data Len = 0 Prefetch = No ReadX = 0 Acks = 0 isGLCSet = 0 isSLCSet = 0 ]
   160596115000  17  Directory   ProbeAcksComplete  BS_Pm>B      [0x13ad080, line 0x13ad080] 
   160596115000   0        Seq                Done       >       [0x13a9718, line 0x13a9700] 1 cycles
160596115000: system.ruby.cp_cntrl0.sequencer: Cache miss at [0x13a9718, line 0x13a9700]
   160596115000   0   CorePair       Ifetch0_L1hit      S>S      [0x13a9700, line 0x13a9700] 
   160596115500   0        Seq               Begin       >       [0x13a9718, line 0x13a9700] IFETCH
   160596117000  43  Directory             DmaRead      U>BDR_PM [0x294c080, line 0x294c080]  sc: Acks remaining: 2
   160596117000   0        Seq                Done       >       [0x13a9718, line 0x13a9700] 1 cycles
160596117000: system.ruby.cp_cntrl0.sequencer: Cache miss at [0x13a9718, line 0x13a9700]
   160596117000   0   CorePair       Ifetch0_L1hit      S>S      [0x13a9700, line 0x13a9700] 
   160596117500   0        Seq               Begin       >       [0x13a9720, line 0x13a9700] IFETCH
   160596119000   0        Seq                Done       >       [0x13a9720, line 0x13a9700] 1 cycles
160596119000: system.ruby.cp_cntrl0.sequencer: Cache miss at [0x13a9720, line 0x13a9700]
   160596119000   0   CorePair       Ifetch0_L1hit      S>S      [0x13a9700, line 0x13a9700] 
   160596119500   0        Seq               Begin       >       [0x13a9720, line 0x13a9700] IFETCH
   160596121000   0        Seq                Done       >       [0x13a9720, line 0x13a9700] 1 cycles
160596121000: system.ruby.cp_cntrl0.sequencer: Cache miss at [0x13a9720, line 0x13a9700]
   160596121000   0   CorePair       Ifetch0_L1hit      S>S      [0x13a9700, line 0x13a9700] 
   160596121500   0        Seq               Begin       >       [0x13a9720, line 0x13a9700] IFETCH
   160596123000   0        Seq                Done       >       [0x13a9720, line 0x13a9700] 1 cycles
160596123000: system.ruby.cp_cntrl0.sequencer: Cache miss at [0x13a9720, line 0x13a9700]
   160596123000   0   CorePair       Ifetch0_L1hit      S>S      [0x13a9700, line 0x13a9700] 
   160596123500   0        Seq               Begin       >       [0x38b08, line 0x38b00] LD
   160596125000   0        Seq                Done       >       [0x38b08, line 0x38b00] 1 cycles
160596125000: system.ruby.cp_cntrl0.sequencer: Cache miss at [0x38b08, line 0x38b00]
   160596125000   0   CorePair       C0_Load_L1hit     M0>M0     [0x38b00, line 0x38b00] 
   160596125500   0        Seq               Begin       >       [0x3faa740, line 0x3faa740] IFETCH
   160596127000  17  Directory               WBAck      B>B      [0x13ad080, line 0x13ad080] 
   160596127000   0        Seq                Done       >       [0x3faa740, line 0x3faa740] 1 cycles
160596127000: system.ruby.cp_cntrl0.sequencer: Cache miss at [0x3faa740, line 0x3faa740]
   160596127000   0   CorePair       Ifetch0_L1hit      S>S      [0x3faa740, line 0x3faa740] 
   160596127500   0        Seq               Begin       >       [0x10d9e78, line 0x10d9e40] LD
   160596129000  43  Directory             MemData BDR_PM>BDR_Pm [0x294c080, line 0x294c080] 
   160596129000   0        Seq                Done       >       [0x10d9e78, line 0x10d9e40] 1 cycles
160596129000: system.ruby.cp_cntrl0.sequencer: Cache miss at [0x10d9e78, line 0x10d9e40]
   160596129000   0   CorePair       C0_Load_L1hit     M0>M0     [0x10d9e40, line 0x10d9e40] 
   160596129500   0        Seq               Begin       >       [0x3faa748, line 0x3faa740] IFETCH
   160596131000   0        Seq                Done       >       [0x3faa748, line 0x3faa740] 1 cycles
160596131000: system.ruby.cp_cntrl0.sequencer: Cache miss at [0x3faa748, line 0x3faa740]
   160596131000   0   CorePair       Ifetch0_L1hit      S>S      [0x3faa740, line 0x3faa740] 
   160596131500   0        Seq               Begin       >       [0x3faa748, line 0x3faa740] IFETCH
   160596133000   0        Seq                Done       >       [0x3faa748, line 0x3faa740] 1 cycles
160596133000: system.ruby.cp_cntrl0.sequencer: Cache miss at [0x3faa748, line 0x3faa740]
   160596133000   0   CorePair       Ifetch0_L1hit      S>S      [0x3faa740, line 0x3faa740] 
   160596133500   0        Seq               Begin       >       [0x3faa740, line 0x3faa740] IFETCH
   160596135000   0        Seq                Done       >       [0x3faa740, line 0x3faa740] 1 cycles
160596135000: system.ruby.cp_cntrl0.sequencer: Cache miss at [0x3faa740, line 0x3faa740]
   160596135000   0   CorePair       Ifetch0_L1hit      S>S      [0x3faa740, line 0x3faa740] 
   160596135500   0        Seq               Begin       >       [0x38b08, line 0x38b00] ST
   160596137000   0        Seq                Done       >       [0x38b08, line 0x38b00] 1 cycles
160596137000: system.ruby.cp_cntrl0.sequencer: Cache miss at [0x38b08, line 0x38b00]
   160596137000   0   CorePair      C0_Store_L1hit     M0>M0     [0x38b00, line 0x38b00] 
   160596137500   0        Seq               Begin       >       [0xfaa3f0, line 0xfaa3c0] IFETCH
   160596139000   0        Seq                Done       >       [0xfaa3f0, line 0xfaa3c0] 1 cycles
160596139000: system.ruby.cp_cntrl0.sequencer: Cache miss at [0xfaa3f0, line 0xfaa3c0]
   160596139000   0   CorePair       Ifetch0_L1hit      S>S      [0xfaa3c0, line 0xfaa3c0] 
   160596139500   0        Seq               Begin       >       [0xfaa3f0, line 0xfaa3c0] IFETCH
   160596141000   0        Seq                Done       >       [0xfaa3f0, line 0xfaa3c0] 1 cycles
160596141000: system.ruby.cp_cntrl0.sequencer: Cache miss at [0xfaa3f0, line 0xfaa3c0]
   160596141000   0   CorePair       Ifetch0_L1hit      S>S      [0xfaa3c0, line 0xfaa3c0] 
   160596141500   0        Seq               Begin       >       [0xfaa3f8, line 0xfaa3c0] IFETCH
   160596143000   0        Seq                Done       >       [0xfaa3f8, line 0xfaa3c0] 1 cycles
160596143000: system.ruby.cp_cntrl0.sequencer: Cache miss at [0xfaa3f8, line 0xfaa3c0]
   160596143000   0   CorePair       Ifetch0_L1hit      S>S      [0xfaa3c0, line 0xfaa3c0] 
   160596143500   0        Seq               Begin       >       [0xf90c20, line 0xf90c00] IFETCH
   160596145000   0        Seq                Done       >       [0xf90c20, line 0xf90c00] 1 cycles
160596145000: system.ruby.cp_cntrl0.sequencer: Cache miss at [0xf90c20, line 0xf90c00]
   160596145000   0   CorePair       Ifetch0_L1hit      S>S      [0xf90c00, line 0xf90c00] 
   160596145500   0        Seq               Begin       >       [0xc62610, line 0xc62600] LD
   160596147000   0        Seq                Done       >       [0xc62610, line 0xc62600] 1 cycles
160596147000: system.ruby.cp_cntrl0.sequencer: Cache miss at [0xc62610, line 0xc62600]
   160596147000   0   CorePair       C0_Load_L1hit      S>S      [0xc62600, line 0xc62600] 
   160596147500   0        Seq               Begin       >       [0x13a9710, line 0x13a9700] IFETCH
   160596149000   2        Seq                Done       >       [0x13ad098, line 0x13ad080] 318 cycles
160596149000: system.ruby.cp_cntrl1.sequencer: Cache hit at [0x13ad098, line 0x13ad080]
   160596149000   1   CorePair             NB_AckS     S0>S      [0x13ad080, line 0x13ad080] 
   160596149000   0        Seq                Done       >       [0x13a9710, line 0x13a9700] 1 cycles
160596149000: system.ruby.cp_cntrl0.sequencer: Cache miss at [0x13a9710, line 0x13a9700]
   160596149000   0   CorePair       Ifetch0_L1hit      S>S      [0x13a9700, line 0x13a9700] 
   160596149500   2        Seq               Begin       >       [0x1399ba8, line 0x1399b80] LD
   160596149500   0        Seq               Begin       >       [0x13a9710, line 0x13a9700] IFETCH
   160596151000   0        Seq                Done       >       [0x13a9710, line 0x13a9700] 1 cycles
160596151000: system.ruby.cp_cntrl0.sequencer: Cache miss at [0x13a9710, line 0x13a9700]
   160596151000   0   CorePair       Ifetch0_L1hit      S>S      [0x13a9700, line 0x13a9700] 
   160596151000   2        Seq                Done       >       [0x1399ba8, line 0x1399b80] 1 cycles
160596151000: system.ruby.cp_cntrl1.sequencer: Cache miss at [0x1399ba8, line 0x1399b80]
   160596151000   1   CorePair       C0_Load_L1hit     M0>M0     [0x1399b80, line 0x1399b80] 
   160596151500   0        Seq               Begin       >       [0x13a9718, line 0x13a9700] IFETCH
   160596151500   2        Seq               Begin       >       [0x13ad098, line 0x13ad080] IFETCH
   160596153000   2        Seq                Done       >       [0x13ad098, line 0x13ad080] 1 cycles
160596153000: system.ruby.cp_cntrl1.sequencer: Cache miss at [0x13ad098, line 0x13ad080]
   160596153000   1   CorePair       Ifetch0_L1hit      S>S      [0x13ad080, line 0x13ad080] 
   160596153000   0        Seq                Done       >       [0x13a9718, line 0x13a9700] 1 cycles
160596153000: system.ruby.cp_cntrl0.sequencer: Cache miss at [0x13a9718, line 0x13a9700]
   160596153000   0   CorePair       Ifetch0_L1hit      S>S      [0x13a9700, line 0x13a9700] 
   160596153500   2        Seq               Begin       >       [0x13ad098, line 0x13ad080] IFETCH
   160596153500   0        Seq               Begin       >       [0x13a9718, line 0x13a9700] IFETCH
   160596155000   0        Seq                Done       >       [0x13a9718, line 0x13a9700] 1 cycles
160596155000: system.ruby.cp_cntrl0.sequencer: Cache miss at [0x13a9718, line 0x13a9700]
   160596155000   0   CorePair       Ifetch0_L1hit      S>S      [0x13a9700, line 0x13a9700] 
   160596155000   2        Seq                Done       >       [0x13ad098, line 0x13ad080] 1 cycles
160596155000: system.ruby.cp_cntrl1.sequencer: Cache miss at [0x13ad098, line 0x13ad080]
   160596155000   1   CorePair       Ifetch0_L1hit      S>S      [0x13ad080, line 0x13ad080] 
   160596155500   0        Seq               Begin       >       [0x13a9718, line 0x13a9700] IFETCH
   160596155500   2        Seq               Begin       >       [0x13ad0a0, line 0x13ad080] IFETCH
   160596157000   2        Seq                Done       >       [0x13ad0a0, line 0x13ad080] 1 cycles
160596157000: system.ruby.cp_cntrl1.sequencer: Cache miss at [0x13ad0a0, line 0x13ad080]
   160596157000   1   CorePair       Ifetch0_L1hit      S>S      [0x13ad080, line 0x13ad080] 
   160596157000   0        Seq                Done       >       [0x13a9718, line 0x13a9700] 1 cycles
160596157000: system.ruby.cp_cntrl0.sequencer: Cache miss at [0x13a9718, line 0x13a9700]
   160596157000   0   CorePair       Ifetch0_L1hit      S>S      [0x13a9700, line 0x13a9700] 
   160596157500   2        Seq               Begin       >       [0x4297f10, line 0x4297f00] IFETCH
   160596157500   0        Seq               Begin       >       [0x13a9720, line 0x13a9700] IFETCH
   160596158000   0   CorePair          PrbShrData      I>I      [0x294c080, line 0x294c080] 
   160596158000   1   CorePair          PrbShrData     E0>S      [0x294c080, line 0x294c080] 
   160596159000   2        Seq                Done       >       [0x4297f10, line 0x4297f00] 1 cycles
160596159000: system.ruby.cp_cntrl1.sequencer: Cache miss at [0x4297f10, line 0x4297f00]
   160596159000   1   CorePair       Ifetch0_L1hit      S>S      [0x4297f00, line 0x4297f00] 
   160596159000   0        Seq                Done       >       [0x13a9720, line 0x13a9700] 1 cycles
160596159000: system.ruby.cp_cntrl0.sequencer: Cache miss at [0x13a9720, line 0x13a9700]
   160596159000   0   CorePair       Ifetch0_L1hit      S>S      [0x13a9700, line 0x13a9700] 
   160596159500   2        Seq               Begin       >       [0x4297f10, line 0x4297f00] IFETCH
   160596159500   0        Seq               Begin       >       [0x13a9720, line 0x13a9700] IFETCH
   160596161000   0        Seq                Done       >       [0x13a9720, line 0x13a9700] 1 cycles
160596161000: system.ruby.cp_cntrl0.sequencer: Cache miss at [0x13a9720, line 0x13a9700]
   160596161000   0   CorePair       Ifetch0_L1hit      S>S      [0x13a9700, line 0x13a9700] 
   160596161000   2        Seq                Done       >       [0x4297f10, line 0x4297f00] 1 cycles
160596161000: system.ruby.cp_cntrl1.sequencer: Cache miss at [0x4297f10, line 0x4297f00]
   160596161000   1   CorePair       Ifetch0_L1hit      S>S      [0x4297f00, line 0x4297f00] 
   160596161500   0        Seq               Begin       >       [0x13a9720, line 0x13a9700] IFETCH
   160596161500   2        Seq               Begin       >       [0x139ec40, line 0x139ec40] LD
   160596163000   2        Seq                Done       >       [0x139ec40, line 0x139ec40] 1 cycles
160596163000: system.ruby.cp_cntrl1.sequencer: Cache miss at [0x139ec40, line 0x139ec40]
   160596163000   1   CorePair       C0_Load_L1hit     M0>M0     [0x139ec40, line 0x139ec40] 
   160596163000   0        Seq                Done       >       [0x13a9720, line 0x13a9700] 1 cycles
160596163000: system.ruby.cp_cntrl0.sequencer: Cache miss at [0x13a9720, line 0x13a9700]
   160596163000   0   CorePair       Ifetch0_L1hit      S>S      [0x13a9700, line 0x13a9700] 
   160596163500   2        Seq               Begin       >       [0x4297f10, line 0x4297f00] IFETCH
   160596163500   0        Seq               Begin       >       [0x38b08, line 0x38b00] LD
   160596165000   0        Seq                Done       >       [0x38b08, line 0x38b00] 1 cycles
160596165000: system.ruby.cp_cntrl0.sequencer: Cache miss at [0x38b08, line 0x38b00]
   160596165000   0   CorePair       C0_Load_L1hit     M0>M0     [0x38b00, line 0x38b00] 
   160596165000   2        Seq                Done       >       [0x4297f10, line 0x4297f00] 1 cycles
160596165000: system.ruby.cp_cntrl1.sequencer: Cache miss at [0x4297f10, line 0x4297f00]
   160596165000   1   CorePair       Ifetch0_L1hit      S>S      [0x4297f00, line 0x4297f00] 
   160596165500   0        Seq               Begin       >       [0x3faa740, line 0x3faa740] IFETCH
   160596165500   2        Seq               Begin       >       [0x139ec48, line 0x139ec40] LD
   160596167000   2        Seq                Done       >       [0x139ec48, line 0x139ec40] 1 cycles
160596167000: system.ruby.cp_cntrl1.sequencer: Cache miss at [0x139ec48, line 0x139ec40]
   160596167000   1   CorePair       C0_Load_L1hit     M0>M0     [0x139ec40, line 0x139ec40] 
   160596167000   0        Seq                Done       >       [0x3faa740, line 0x3faa740] 1 cycles
160596167000: system.ruby.cp_cntrl0.sequencer: Cache miss at [0x3faa740, line 0x3faa740]
   160596167000   0   CorePair       Ifetch0_L1hit      S>S      [0x3faa740, line 0x3faa740] 
   160596167500   2        Seq               Begin       >       [0x4297f10, line 0x4297f00] IFETCH
   160596167500   0        Seq               Begin       >       [0x10d9e78, line 0x10d9e40] LD
   160596169000   0        Seq                Done       >       [0x10d9e78, line 0x10d9e40] 1 cycles
160596169000: system.ruby.cp_cntrl0.sequencer: Cache miss at [0x10d9e78, line 0x10d9e40]
   160596169000   0   CorePair       C0_Load_L1hit     M0>M0     [0x10d9e40, line 0x10d9e40] 
   160596169000   2        Seq                Done       >       [0x4297f10, line 0x4297f00] 1 cycles
160596169000: system.ruby.cp_cntrl1.sequencer: Cache miss at [0x4297f10, line 0x4297f00]
   160596169000   1   CorePair       Ifetch0_L1hit      S>S      [0x4297f00, line 0x4297f00] 
   160596169500   0        Seq               Begin       >       [0x3faa748, line 0x3faa740] IFETCH
   160596169500   2        Seq               Begin       >       [0x4297f18, line 0x4297f00] IFETCH
   160596171000   2        Seq                Done       >       [0x4297f18, line 0x4297f00] 1 cycles
160596171000: system.ruby.cp_cntrl1.sequencer: Cache miss at [0x4297f18, line 0x4297f00]
   160596171000   1   CorePair       Ifetch0_L1hit      S>S      [0x4297f00, line 0x4297f00] 
   160596171000   0        Seq                Done       >       [0x3faa748, line 0x3faa740] 1 cycles
160596171000: system.ruby.cp_cntrl0.sequencer: Cache miss at [0x3faa748, line 0x3faa740]
   160596171000   0   CorePair       Ifetch0_L1hit      S>S      [0x3faa740, line 0x3faa740] 
   160596171500   2        Seq               Begin       >       [0x139ec50, line 0x139ec40] LD
   160596171500   0        Seq               Begin       >       [0x3faa748, line 0x3faa740] IFETCH
   160596173000   0        Seq                Done       >       [0x3faa748, line 0x3faa740] 1 cycles
160596173000: system.ruby.cp_cntrl0.sequencer: Cache miss at [0x3faa748, line 0x3faa740]
   160596173000   0   CorePair       Ifetch0_L1hit      S>S      [0x3faa740, line 0x3faa740] 
   160596173000   2        Seq                Done       >       [0x139ec50, line 0x139ec40] 1 cycles
160596173000: system.ruby.cp_cntrl1.sequencer: Cache miss at [0x139ec50, line 0x139ec40]
   160596173000   1   CorePair       C0_Load_L1hit     M0>M0     [0x139ec40, line 0x139ec40] 
   160596173500   0        Seq               Begin       >       [0x3faa740, line 0x3faa740] IFETCH
   160596173500   2        Seq               Begin       >       [0x4297f18, line 0x4297f00] IFETCH
   160596175000   2        Seq                Done       >       [0x4297f18, line 0x4297f00] 1 cycles
160596175000: system.ruby.cp_cntrl1.sequencer: Cache miss at [0x4297f18, line 0x4297f00]
   160596175000   1   CorePair       Ifetch0_L1hit      S>S      [0x4297f00, line 0x4297f00] 
   160596175000   0        Seq                Done       >       [0x3faa740, line 0x3faa740] 1 cycles
160596175000: system.ruby.cp_cntrl0.sequencer: Cache miss at [0x3faa740, line 0x3faa740]
   160596175000   0   CorePair       Ifetch0_L1hit      S>S      [0x3faa740, line 0x3faa740] 
   160596175500   2        Seq               Begin       >       [0x139ec58, line 0x139ec40] LD
   160596175500   0        Seq               Begin       >       [0x38b08, line 0x38b00] ST
   160596177000   0        Seq                Done       >       [0x38b08, line 0x38b00] 1 cycles
160596177000: system.ruby.cp_cntrl0.sequencer: Cache miss at [0x38b08, line 0x38b00]
   160596177000   0   CorePair      C0_Store_L1hit     M0>M0     [0x38b00, line 0x38b00] 
   160596177000   2        Seq                Done       >       [0x139ec58, line 0x139ec40] 1 cycles
160596177000: system.ruby.cp_cntrl1.sequencer: Cache miss at [0x139ec58, line 0x139ec40]
   160596177000   1   CorePair       C0_Load_L1hit     M0>M0     [0x139ec40, line 0x139ec40] 
   160596177500   0        Seq               Begin       >       [0xfaa3f0, line 0xfaa3c0] IFETCH
   160596177500   2        Seq               Begin       >       [0x4297f18, line 0x4297f00] IFETCH
   160596179000   2        Seq                Done       >       [0x4297f18, line 0x4297f00] 1 cycles
160596179000: system.ruby.cp_cntrl1.sequencer: Cache miss at [0x4297f18, line 0x4297f00]
   160596179000   1   CorePair       Ifetch0_L1hit      S>S      [0x4297f00, line 0x4297f00] 
   160596179000   0        Seq                Done       >       [0xfaa3f0, line 0xfaa3c0] 1 cycles
160596179000: system.ruby.cp_cntrl0.sequencer: Cache miss at [0xfaa3f0, line 0xfaa3c0]
   160596179000   0   CorePair       Ifetch0_L1hit      S>S      [0xfaa3c0, line 0xfaa3c0] 
   160596179500   2        Seq               Begin       >       [0x139ec60, line 0x139ec40] LD
   160596179500   0        Seq               Begin       >       [0xfaa3f0, line 0xfaa3c0] IFETCH
   160596181000   0        Seq                Done       >       [0xfaa3f0, line 0xfaa3c0] 1 cycles
160596181000: system.ruby.cp_cntrl0.sequencer: Cache miss at [0xfaa3f0, line 0xfaa3c0]
   160596181000   0   CorePair       Ifetch0_L1hit      S>S      [0xfaa3c0, line 0xfaa3c0] 
   160596181000   2        Seq                Done       >       [0x139ec60, line 0x139ec40] 1 cycles
160596181000: system.ruby.cp_cntrl1.sequencer: Cache miss at [0x139ec60, line 0x139ec40]
   160596181000   1   CorePair       C0_Load_L1hit     M0>M0     [0x139ec40, line 0x139ec40] 
   160596181500   0        Seq               Begin       >       [0xfaa3f8, line 0xfaa3c0] IFETCH
   160596181500   2        Seq               Begin       >       [0x4297f18, line 0x4297f00] IFETCH
   160596183000   2        Seq                Done       >       [0x4297f18, line 0x4297f00] 1 cycles
160596183000: system.ruby.cp_cntrl1.sequencer: Cache miss at [0x4297f18, line 0x4297f00]
   160596183000   1   CorePair       Ifetch0_L1hit      S>S      [0x4297f00, line 0x4297f00] 
   160596183000   0        Seq                Done       >       [0xfaa3f8, line 0xfaa3c0] 1 cycles
160596183000: system.ruby.cp_cntrl0.sequencer: Cache miss at [0xfaa3f8, line 0xfaa3c0]
   160596183000   0   CorePair       Ifetch0_L1hit      S>S      [0xfaa3c0, line 0xfaa3c0] 
   160596183500   2        Seq               Begin       >       [0x139ec68, line 0x139ec40] LD
   160596183500   0        Seq               Begin       >       [0xf90c20, line 0xf90c00] IFETCH
   160596185000   0        Seq                Done       >       [0xf90c20, line 0xf90c00] 1 cycles
160596185000: system.ruby.cp_cntrl0.sequencer: Cache miss at [0xf90c20, line 0xf90c00]
   160596185000   0   CorePair       Ifetch0_L1hit      S>S      [0xf90c00, line 0xf90c00] 
   160596185000   2        Seq                Done       >       [0x139ec68, line 0x139ec40] 1 cycles
160596185000: system.ruby.cp_cntrl1.sequencer: Cache miss at [0x139ec68, line 0x139ec40]
   160596185000   1   CorePair       C0_Load_L1hit     M0>M0     [0x139ec40, line 0x139ec40] 
   160596185500   0        Seq               Begin       >       [0xc62610, line 0xc62600] LD
   160596185500   2        Seq               Begin       >       [0x13aa108, line 0x13aa100] IFETCH
   160596187000   2        Seq                Done       >       [0x13aa108, line 0x13aa100] 1 cycles
160596187000: system.ruby.cp_cntrl1.sequencer: Cache miss at [0x13aa108, line 0x13aa100]
   160596187000   1   CorePair       Ifetch0_L1hit      S>S      [0x13aa100, line 0x13aa100] 
   160596187000   0        Seq                Done       >       [0xc62610, line 0xc62600] 1 cycles
160596187000: system.ruby.cp_cntrl0.sequencer: Cache miss at [0xc62610, line 0xc62600]
   160596187000   0   CorePair       C0_Load_L1hit      S>S      [0xc62600, line 0xc62600] 
   160596187500   2        Seq               Begin       >       [0x13aa110, line 0x13aa100] IFETCH
   160596187500   0        Seq               Begin       >       [0x13a9710, line 0x13a9700] IFETCH
   160596189000   0        Seq                Done       >       [0x13a9710, line 0x13a9700] 1 cycles
160596189000: system.ruby.cp_cntrl0.sequencer: Cache miss at [0x13a9710, line 0x13a9700]
   160596189000   0   CorePair       Ifetch0_L1hit      S>S      [0x13a9700, line 0x13a9700] 
   160596189000   2        Seq                Done       >       [0x13aa110, line 0x13aa100] 1 cycles
160596189000: system.ruby.cp_cntrl1.sequencer: Cache miss at [0x13aa110, line 0x13aa100]
   160596189000   1   CorePair       Ifetch0_L1hit      S>S      [0x13aa100, line 0x13aa100] 
   160596189500   0        Seq               Begin       >       [0x13a9710, line 0x13a9700] IFETCH
   160596189500   2        Seq               Begin       >       [0x10d9ee0, line 0x10d9ec0] LD
   160596191000   2        Seq                Done       >       [0x10d9ee0, line 0x10d9ec0] 1 cycles
160596191000: system.ruby.cp_cntrl1.sequencer: Cache miss at [0x10d9ee0, line 0x10d9ec0]
   160596191000   1   CorePair       C0_Load_L1hit      S>S      [0x10d9ec0, line 0x10d9ec0] 
   160596191000   0        Seq                Done       >       [0x13a9710, line 0x13a9700] 1 cycles
160596191000: system.ruby.cp_cntrl0.sequencer: Cache miss at [0x13a9710, line 0x13a9700]
   160596191000   0   CorePair       Ifetch0_L1hit      S>S      [0x13a9700, line 0x13a9700] 
   160596191500   2        Seq               Begin       >       [0x13aa110, line 0x13aa100] IFETCH
   160596191500   0        Seq               Begin       >       [0x13a9718, line 0x13a9700] IFETCH
   160596193000   0        Seq                Done       >       [0x13a9718, line 0x13a9700] 1 cycles
160596193000: system.ruby.cp_cntrl0.sequencer: Cache miss at [0x13a9718, line 0x13a9700]
   160596193000   0   CorePair       Ifetch0_L1hit      S>S      [0x13a9700, line 0x13a9700] 
   160596193000   2        Seq                Done       >       [0x13aa110, line 0x13aa100] 1 cycles
160596193000: system.ruby.cp_cntrl1.sequencer: Cache miss at [0x13aa110, line 0x13aa100]
   160596193000   1   CorePair       Ifetch0_L1hit      S>S      [0x13aa100, line 0x13aa100] 
   160596193500   0        Seq               Begin       >       [0x13a9718, line 0x13a9700] IFETCH
   160596193500   2        Seq               Begin       >       [0x13aa110, line 0x13aa100] IFETCH
   160596195000   2        Seq                Done       >       [0x13aa110, line 0x13aa100] 1 cycles
160596195000: system.ruby.cp_cntrl1.sequencer: Cache miss at [0x13aa110, line 0x13aa100]
   160596195000   1   CorePair       Ifetch0_L1hit      S>S      [0x13aa100, line 0x13aa100] 
   160596195000   0        Seq                Done       >       [0x13a9718, line 0x13a9700] 1 cycles
160596195000: system.ruby.cp_cntrl0.sequencer: Cache miss at [0x13a9718, line 0x13a9700]
   160596195000   0   CorePair       Ifetch0_L1hit      S>S      [0x13a9700, line 0x13a9700] 
   160596195500   2        Seq               Begin       >       [0x13aa130, line 0x13aa100] IFETCH
   160596195500   0        Seq               Begin       >       [0x13a9718, line 0x13a9700] IFETCH
   160596197000   0        Seq                Done       >       [0x13a9718, line 0x13a9700] 1 cycles
160596197000: system.ruby.cp_cntrl0.sequencer: Cache miss at [0x13a9718, line 0x13a9700]
   160596197000   0   CorePair       Ifetch0_L1hit      S>S      [0x13a9700, line 0x13a9700] 
   160596197000   2        Seq                Done       >       [0x13aa130, line 0x13aa100] 1 cycles
160596197000: system.ruby.cp_cntrl1.sequencer: Cache miss at [0x13aa130, line 0x13aa100]
   160596197000   1   CorePair       Ifetch0_L1hit      S>S      [0x13aa100, line 0x13aa100] 
   160596197500   0        Seq               Begin       >       [0x13a9720, line 0x13a9700] IFETCH
   160596197500   2        Seq               Begin       >       [0x139ec80, line 0x139ec80] ST
   160596199000   2        Seq                Done       >       [0x139ec80, line 0x139ec80] 1 cycles
160596199000: system.ruby.cp_cntrl1.sequencer: Cache miss at [0x139ec80, line 0x139ec80]
   160596199000   1   CorePair      C0_Store_L1hit     M0>M0     [0x139ec80, line 0x139ec80] 
   160596199000   0        Seq                Done       >       [0x13a9720, line 0x13a9700] 1 cycles
160596199000: system.ruby.cp_cntrl0.sequencer: Cache miss at [0x13a9720, line 0x13a9700]
   160596199000   0   CorePair       Ifetch0_L1hit      S>S      [0x13a9700, line 0x13a9700] 
   160596199500   2        Seq               Begin       >       [0x13aa130, line 0x13aa100] IFETCH
   160596199500   0        Seq               Begin       >       [0x13a9720, line 0x13a9700] IFETCH
   160596201000   0        Seq                Done       >       [0x13a9720, line 0x13a9700] 1 cycles
160596201000: system.ruby.cp_cntrl0.sequencer: Cache miss at [0x13a9720, line 0x13a9700]
   160596201000   0   CorePair       Ifetch0_L1hit      S>S      [0x13a9700, line 0x13a9700] 
   160596201000   2        Seq                Done       >       [0x13aa130, line 0x13aa100] 1 cycles
160596201000: system.ruby.cp_cntrl1.sequencer: Cache miss at [0x13aa130, line 0x13aa100]
   160596201000   1   CorePair       Ifetch0_L1hit      S>S      [0x13aa100, line 0x13aa100] 
   160596201500   0        Seq               Begin       >       [0x13a9720, line 0x13a9700] IFETCH
   160596201500   2        Seq               Begin       >       [0x13aa138, line 0x13aa100] IFETCH
   160596203000   2        Seq                Done       >       [0x13aa138, line 0x13aa100] 1 cycles
160596203000: system.ruby.cp_cntrl1.sequencer: Cache miss at [0x13aa138, line 0x13aa100]
   160596203000   1   CorePair       Ifetch0_L1hit      S>S      [0x13aa100, line 0x13aa100] 
   160596203000   0        Seq                Done       >       [0x13a9720, line 0x13a9700] 1 cycles
160596203000: system.ruby.cp_cntrl0.sequencer: Cache miss at [0x13a9720, line 0x13a9700]
   160596203000   0   CorePair       Ifetch0_L1hit      S>S      [0x13a9700, line 0x13a9700] 
   160596203500   2        Seq               Begin       >       [0x138df90, line 0x138df80] IFETCH
   160596203500   0        Seq               Begin       >       [0x38b08, line 0x38b00] LD
   160596205000   0        Seq                Done       >       [0x38b08, line 0x38b00] 1 cycles
160596205000: system.ruby.cp_cntrl0.sequencer: Cache miss at [0x38b08, line 0x38b00]
   160596205000   0   CorePair       C0_Load_L1hit     M0>M0     [0x38b00, line 0x38b00] 
   160596205000   2        Seq                Done       >       [0x138df90, line 0x138df80] 1 cycles
160596205000: system.ruby.cp_cntrl1.sequencer: Cache miss at [0x138df90, line 0x138df80]
   160596205000   1   CorePair       Ifetch0_L1hit      S>S      [0x138df80, line 0x138df80] 
   160596205500   0        Seq               Begin       >       [0x3faa740, line 0x3faa740] IFETCH
   160596205500   2        Seq               Begin       >       [0x10d7bd8, line 0x10d7bc0] LD
   160596207000   1   CorePair      C0_Load_L1miss      I>I_E0S  [0x10d7bc0, line 0x10d7bc0] 
   160596207000   0        Seq                Done       >       [0x3faa740, line 0x3faa740] 1 cycles
160596207000: system.ruby.cp_cntrl0.sequencer: Cache miss at [0x3faa740, line 0x3faa740]
   160596207000   0   CorePair       Ifetch0_L1hit      S>S      [0x3faa740, line 0x3faa740] 
   160596207500   0        Seq               Begin       >       [0x10d9e78, line 0x10d9e40] LD
   160596209000   0        Seq                Done       >       [0x10d9e78, line 0x10d9e40] 1 cycles
160596209000: system.ruby.cp_cntrl0.sequencer: Cache miss at [0x10d9e78, line 0x10d9e40]
   160596209000   0   CorePair       C0_Load_L1hit     M0>M0     [0x10d9e40, line 0x10d9e40] 
   160596209500   0        Seq               Begin       >       [0x3faa748, line 0x3faa740] IFETCH
   160596211000   0        Seq                Done       >       [0x3faa748, line 0x3faa740] 1 cycles
160596211000: system.ruby.cp_cntrl0.sequencer: Cache miss at [0x3faa748, line 0x3faa740]
   160596211000   0   CorePair       Ifetch0_L1hit      S>S      [0x3faa740, line 0x3faa740] 
   160596211500   0        Seq               Begin       >       [0x3faa748, line 0x3faa740] IFETCH
   160596213000   0        Seq                Done       >       [0x3faa748, line 0x3faa740] 1 cycles
160596213000: system.ruby.cp_cntrl0.sequencer: Cache miss at [0x3faa748, line 0x3faa740]
   160596213000   0   CorePair       Ifetch0_L1hit      S>S      [0x3faa740, line 0x3faa740] 
   160596213500   0        Seq               Begin       >       [0x3faa740, line 0x3faa740] IFETCH
   160596215000   0        Seq                Done       >       [0x3faa740, line 0x3faa740] 1 cycles
160596215000: system.ruby.cp_cntrl0.sequencer: Cache miss at [0x3faa740, line 0x3faa740]
   160596215000   0   CorePair       Ifetch0_L1hit      S>S      [0x3faa740, line 0x3faa740] 
   160596215500   0        Seq               Begin       >       [0x38b08, line 0x38b00] ST
   160596217000   0        Seq                Done       >       [0x38b08, line 0x38b00] 1 cycles
160596217000: system.ruby.cp_cntrl0.sequencer: Cache miss at [0x38b08, line 0x38b00]
   160596217000   0   CorePair      C0_Store_L1hit     M0>M0     [0x38b00, line 0x38b00] 
   160596217500   0        Seq               Begin       >       [0xfaa3f0, line 0xfaa3c0] IFETCH
   160596219000   0        Seq                Done       >       [0xfaa3f0, line 0xfaa3c0] 1 cycles
160596219000: system.ruby.cp_cntrl0.sequencer: Cache miss at [0xfaa3f0, line 0xfaa3c0]
   160596219000   0   CorePair       Ifetch0_L1hit      S>S      [0xfaa3c0, line 0xfaa3c0] 
   160596219500   0        Seq               Begin       >       [0xfaa3f0, line 0xfaa3c0] IFETCH
   160596221000   0        Seq                Done       >       [0xfaa3f0, line 0xfaa3c0] 1 cycles
160596221000: system.ruby.cp_cntrl0.sequencer: Cache miss at [0xfaa3f0, line 0xfaa3c0]
   160596221000   0   CorePair       Ifetch0_L1hit      S>S      [0xfaa3c0, line 0xfaa3c0] 
   160596221500   0        Seq               Begin       >       [0xfaa3f8, line 0xfaa3c0] IFETCH
   160596223000   0        Seq                Done       >       [0xfaa3f8, line 0xfaa3c0] 1 cycles
160596223000: system.ruby.cp_cntrl0.sequencer: Cache miss at [0xfaa3f8, line 0xfaa3c0]
   160596223000   0   CorePair       Ifetch0_L1hit      S>S      [0xfaa3c0, line 0xfaa3c0] 
   160596223500   0        Seq               Begin       >       [0xf90c20, line 0xf90c00] IFETCH
   160596225000   0        Seq                Done       >       [0xf90c20, line 0xf90c00] 1 cycles
160596225000: system.ruby.cp_cntrl0.sequencer: Cache miss at [0xf90c20, line 0xf90c00]
   160596225000   0   CorePair       Ifetch0_L1hit      S>S      [0xf90c00, line 0xf90c00] 
   160596225500   0        Seq               Begin       >       [0xc62610, line 0xc62600] LD
   160596227000   0        Seq                Done       >       [0xc62610, line 0xc62600] 1 cycles
160596227000: system.ruby.cp_cntrl0.sequencer: Cache miss at [0xc62610, line 0xc62600]
   160596227000   0   CorePair       C0_Load_L1hit      S>S      [0xc62600, line 0xc62600] 
   160596227500   0        Seq               Begin       >       [0x13a9710, line 0x13a9700] IFETCH
   160596229000   0        Seq                Done       >       [0x13a9710, line 0x13a9700] 1 cycles
160596229000: system.ruby.cp_cntrl0.sequencer: Cache miss at [0x13a9710, line 0x13a9700]
   160596229000   0   CorePair       Ifetch0_L1hit      S>S      [0x13a9700, line 0x13a9700] 
   160596229500   0        Seq               Begin       >       [0x13a9710, line 0x13a9700] IFETCH
   160596231000   0        Seq                Done       >       [0x13a9710, line 0x13a9700] 1 cycles
160596231000: system.ruby.cp_cntrl0.sequencer: Cache miss at [0x13a9710, line 0x13a9700]
   160596231000   0   CorePair       Ifetch0_L1hit      S>S      [0x13a9700, line 0x13a9700] 
   160596231500   0        Seq               Begin       >       [0x13a9718, line 0x13a9700] IFETCH
   160596233000   0        Seq                Done       >       [0x13a9718, line 0x13a9700] 1 cycles
160596233000: system.ruby.cp_cntrl0.sequencer: Cache miss at [0x13a9718, line 0x13a9700]
   160596233000   0   CorePair       Ifetch0_L1hit      S>S      [0x13a9700, line 0x13a9700] 
   160596233500   0        Seq               Begin       >       [0x13a9718, line 0x13a9700] IFETCH
   160596235000   0        Seq                Done       >       [0x13a9718, line 0x13a9700] 1 cycles
160596235000: system.ruby.cp_cntrl0.sequencer: Cache miss at [0x13a9718, line 0x13a9700]
   160596235000   0   CorePair       Ifetch0_L1hit      S>S      [0x13a9700, line 0x13a9700] 
   160596235500   0        Seq               Begin       >       [0x13a9718, line 0x13a9700] IFETCH
   160596237000   0        Seq                Done       >       [0x13a9718, line 0x13a9700] 1 cycles
160596237000: system.ruby.cp_cntrl0.sequencer: Cache miss at [0x13a9718, line 0x13a9700]
   160596237000   0   CorePair       Ifetch0_L1hit      S>S      [0x13a9700, line 0x13a9700] 
   160596237500   0        Seq               Begin       >       [0x13a9720, line 0x13a9700] IFETCH
   160596239000   0        Seq                Done       >       [0x13a9720, line 0x13a9700] 1 cycles
160596239000: system.ruby.cp_cntrl0.sequencer: Cache miss at [0x13a9720, line 0x13a9700]
   160596239000   0   CorePair       Ifetch0_L1hit      S>S      [0x13a9700, line 0x13a9700] 
   160596239500   0        Seq               Begin       >       [0x13a9720, line 0x13a9700] IFETCH
   160596241000   0        Seq                Done       >       [0x13a9720, line 0x13a9700] 1 cycles
160596241000: system.ruby.cp_cntrl0.sequencer: Cache miss at [0x13a9720, line 0x13a9700]
   160596241000   0   CorePair       Ifetch0_L1hit      S>S      [0x13a9700, line 0x13a9700] 
   160596241500   0        Seq               Begin       >       [0x13a9720, line 0x13a9700] IFETCH
   160596243000   0        Seq                Done       >       [0x13a9720, line 0x13a9700] 1 cycles
160596243000: system.ruby.cp_cntrl0.sequencer: Cache miss at [0x13a9720, line 0x13a9700]
   160596243000   0   CorePair       Ifetch0_L1hit      S>S      [0x13a9700, line 0x13a9700] 
   160596243500   0        Seq               Begin       >       [0x38b08, line 0x38b00] LD
   160596245000   0        Seq                Done       >       [0x38b08, line 0x38b00] 1 cycles
160596245000: system.ruby.cp_cntrl0.sequencer: Cache miss at [0x38b08, line 0x38b00]
   160596245000   0   CorePair       C0_Load_L1hit     M0>M0     [0x38b00, line 0x38b00] 
   160596245500   0        Seq               Begin       >       [0x3faa740, line 0x3faa740] IFETCH
   160596247000   0        Seq                Done       >       [0x3faa740, line 0x3faa740] 1 cycles
160596247000: system.ruby.cp_cntrl0.sequencer: Cache miss at [0x3faa740, line 0x3faa740]
   160596247000   0   CorePair       Ifetch0_L1hit      S>S      [0x3faa740, line 0x3faa740] 
   160596247500   0        Seq               Begin       >       [0x10d9e78, line 0x10d9e40] LD
   160596249000   0        Seq                Done       >       [0x10d9e78, line 0x10d9e40] 1 cycles
160596249000: system.ruby.cp_cntrl0.sequencer: Cache miss at [0x10d9e78, line 0x10d9e40]
   160596249000   0   CorePair       C0_Load_L1hit     M0>M0     [0x10d9e40, line 0x10d9e40] 
   160596249500   0        Seq               Begin       >       [0x3faa748, line 0x3faa740] IFETCH
   160596251000   0        Seq                Done       >       [0x3faa748, line 0x3faa740] 1 cycles
160596251000: system.ruby.cp_cntrl0.sequencer: Cache miss at [0x3faa748, line 0x3faa740]
   160596251000   0   CorePair       Ifetch0_L1hit      S>S      [0x3faa740, line 0x3faa740] 
   160596251500   0        Seq               Begin       >       [0x3faa748, line 0x3faa740] IFETCH
   160596253000   0        Seq                Done       >       [0x3faa748, line 0x3faa740] 1 cycles
160596253000: system.ruby.cp_cntrl0.sequencer: Cache miss at [0x3faa748, line 0x3faa740]
   160596253000   0   CorePair       Ifetch0_L1hit      S>S      [0x3faa740, line 0x3faa740] 
   160596253500   0        Seq               Begin       >       [0x3faa740, line 0x3faa740] IFETCH
   160596255000   0        Seq                Done       >       [0x3faa740, line 0x3faa740] 1 cycles
160596255000: system.ruby.cp_cntrl0.sequencer: Cache miss at [0x3faa740, line 0x3faa740]
   160596255000   0   CorePair       Ifetch0_L1hit      S>S      [0x3faa740, line 0x3faa740] 
   160596255500   0        Seq               Begin       >       [0x38b08, line 0x38b00] ST
   160596257000   0        Seq                Done       >       [0x38b08, line 0x38b00] 1 cycles
160596257000: system.ruby.cp_cntrl0.sequencer: Cache miss at [0x38b08, line 0x38b00]
   160596257000   0   CorePair      C0_Store_L1hit     M0>M0     [0x38b00, line 0x38b00] 
   160596257500   0        Seq               Begin       >       [0xfaa3f0, line 0xfaa3c0] IFETCH
   160596259000   0        Seq                Done       >       [0xfaa3f0, line 0xfaa3c0] 1 cycles
160596259000: system.ruby.cp_cntrl0.sequencer: Cache miss at [0xfaa3f0, line 0xfaa3c0]
   160596259000   0   CorePair       Ifetch0_L1hit      S>S      [0xfaa3c0, line 0xfaa3c0] 
   160596259500   0        Seq               Begin       >       [0xfaa3f0, line 0xfaa3c0] IFETCH
   160596261000   0        Seq                Done       >       [0xfaa3f0, line 0xfaa3c0] 1 cycles
160596261000: system.ruby.cp_cntrl0.sequencer: Cache miss at [0xfaa3f0, line 0xfaa3c0]
   160596261000   0   CorePair       Ifetch0_L1hit      S>S      [0xfaa3c0, line 0xfaa3c0] 
   160596261500   0        Seq               Begin       >       [0xfaa3f8, line 0xfaa3c0] IFETCH
   160596263000   0        Seq                Done       >       [0xfaa3f8, line 0xfaa3c0] 1 cycles
160596263000: system.ruby.cp_cntrl0.sequencer: Cache miss at [0xfaa3f8, line 0xfaa3c0]
   160596263000   0   CorePair       Ifetch0_L1hit      S>S      [0xfaa3c0, line 0xfaa3c0] 
   160596263500   0        Seq               Begin       >       [0xf90c20, line 0xf90c00] IFETCH
   160596265000   0        Seq                Done       >       [0xf90c20, line 0xf90c00] 1 cycles
160596265000: system.ruby.cp_cntrl0.sequencer: Cache miss at [0xf90c20, line 0xf90c00]
   160596265000   0   CorePair       Ifetch0_L1hit      S>S      [0xf90c00, line 0xf90c00] 
   160596265500   0        Seq               Begin       >       [0xc62610, line 0xc62600] LD
   160596267000   0        Seq                Done       >       [0xc62610, line 0xc62600] 1 cycles
160596267000: system.ruby.cp_cntrl0.sequencer: Cache miss at [0xc62610, line 0xc62600]
   160596267000   0   CorePair       C0_Load_L1hit      S>S      [0xc62600, line 0xc62600] 
   160596267500   0        Seq               Begin       >       [0x13a9710, line 0x13a9700] IFETCH
   160596269000   0        Seq                Done       >       [0x13a9710, line 0x13a9700] 1 cycles
160596269000: system.ruby.cp_cntrl0.sequencer: Cache miss at [0x13a9710, line 0x13a9700]
   160596269000   0   CorePair       Ifetch0_L1hit      S>S      [0x13a9700, line 0x13a9700] 
   160596269500   0        Seq               Begin       >       [0x13a9710, line 0x13a9700] IFETCH
   160596271000   0        Seq                Done       >       [0x13a9710, line 0x13a9700] 1 cycles
160596271000: system.ruby.cp_cntrl0.sequencer: Cache miss at [0x13a9710, line 0x13a9700]
   160596271000   0   CorePair       Ifetch0_L1hit      S>S      [0x13a9700, line 0x13a9700] 
   160596271500   0        Seq               Begin       >       [0x13a9718, line 0x13a9700] IFETCH
   160596273000  17  Directory         CoreUnblock      B>U      [0x13ad080, line 0x13ad080] 
   160596273000   0        Seq                Done       >       [0x13a9718, line 0x13a9700] 1 cycles
160596273000: system.ruby.cp_cntrl0.sequencer: Cache miss at [0x13a9718, line 0x13a9700]
   160596273000   0   CorePair       Ifetch0_L1hit      S>S      [0x13a9700, line 0x13a9700] 
   160596273500   0        Seq               Begin       >       [0x13a9718, line 0x13a9700] IFETCH
   160596275000   0        Seq                Done       >       [0x13a9718, line 0x13a9700] 1 cycles
160596275000: system.ruby.cp_cntrl0.sequencer: Cache miss at [0x13a9718, line 0x13a9700]
   160596275000   0   CorePair       Ifetch0_L1hit      S>S      [0x13a9700, line 0x13a9700] 
   160596275500   0        Seq               Begin       >       [0x13a9718, line 0x13a9700] IFETCH
   160596277000   0        Seq                Done       >       [0x13a9718, line 0x13a9700] 1 cycles
160596277000: system.ruby.cp_cntrl0.sequencer: Cache miss at [0x13a9718, line 0x13a9700]
   160596277000   0   CorePair       Ifetch0_L1hit      S>S      [0x13a9700, line 0x13a9700] 
   160596277500   0        Seq               Begin       >       [0x13a9720, line 0x13a9700] IFETCH
   160596279000   0        Seq                Done       >       [0x13a9720, line 0x13a9700] 1 cycles
160596279000: system.ruby.cp_cntrl0.sequencer: Cache miss at [0x13a9720, line 0x13a9700]
   160596279000   0   CorePair       Ifetch0_L1hit      S>S      [0x13a9700, line 0x13a9700] 
   160596279500   0        Seq               Begin       >       [0x13a9720, line 0x13a9700] IFETCH
   160596281000   0        Seq                Done       >       [0x13a9720, line 0x13a9700] 1 cycles
160596281000: system.ruby.cp_cntrl0.sequencer: Cache miss at [0x13a9720, line 0x13a9700]
   160596281000   0   CorePair       Ifetch0_L1hit      S>S      [0x13a9700, line 0x13a9700] 
   160596281500   0        Seq               Begin       >       [0x13a9720, line 0x13a9700] IFETCH
   160596282000  43  Directory          CPUPrbResp BDR_Pm>BDR_Pm [0x294c080, line 0x294c080]  Acks remaining: 1 Check: Acks remaining: 1
   160596283000  43  Directory          CPUPrbResp BDR_Pm>BDR_Pm [0x294c080, line 0x294c080]  Acks remaining: 0 Check: Acks remaining: 0
   160596283000   0        Seq                Done       >       [0x13a9720, line 0x13a9700] 1 cycles
160596283000: system.ruby.cp_cntrl0.sequencer: Cache miss at [0x13a9720, line 0x13a9700]
   160596283000   0   CorePair       Ifetch0_L1hit      S>S      [0x13a9700, line 0x13a9700] 
   160596283500   0        Seq               Begin       >       [0x38b08, line 0x38b00] LD
   160596284000  43  Directory   ProbeAcksComplete BDR_Pm>U      [0x294c080, line 0x294c080] 
   160596285000   0        Seq                Done       >       [0x38b08, line 0x38b00] 1 cycles
160596285000: system.ruby.cp_cntrl0.sequencer: Cache miss at [0x38b08, line 0x38b00]
   160596285000   0   CorePair       C0_Load_L1hit     M0>M0     [0x38b00, line 0x38b00] 
   160596285500   0        Seq               Begin       >       [0x3faa740, line 0x3faa740] IFETCH
   160596287000   0        Seq                Done       >       [0x3faa740, line 0x3faa740] 1 cycles
160596287000: system.ruby.cp_cntrl0.sequencer: Cache miss at [0x3faa740, line 0x3faa740]
   160596287000   0   CorePair       Ifetch0_L1hit      S>S      [0x3faa740, line 0x3faa740] 
   160596287500   0        Seq               Begin       >       [0x10d9e78, line 0x10d9e40] LD
   160596289000   0        Seq                Done       >       [0x10d9e78, line 0x10d9e40] 1 cycles
160596289000: system.ruby.cp_cntrl0.sequencer: Cache miss at [0x10d9e78, line 0x10d9e40]
   160596289000   0   CorePair       C0_Load_L1hit     M0>M0     [0x10d9e40, line 0x10d9e40] 
   160596289500   0        Seq               Begin       >       [0x3faa748, line 0x3faa740] IFETCH
   160596291000   0        Seq                Done       >       [0x3faa748, line 0x3faa740] 1 cycles
160596291000: system.ruby.cp_cntrl0.sequencer: Cache miss at [0x3faa748, line 0x3faa740]
   160596291000   0   CorePair       Ifetch0_L1hit      S>S      [0x3faa740, line 0x3faa740] 
   160596291500   0        Seq               Begin       >       [0x3faa748, line 0x3faa740] IFETCH
   160596293000   0        Seq                Done       >       [0x3faa748, line 0x3faa740] 1 cycles
160596293000: system.ruby.cp_cntrl0.sequencer: Cache miss at [0x3faa748, line 0x3faa740]
   160596293000   0   CorePair       Ifetch0_L1hit      S>S      [0x3faa740, line 0x3faa740] 
   160596293500   0        Seq               Begin       >       [0x3faa740, line 0x3faa740] IFETCH
   160596295000   0        Seq                Done       >       [0x3faa740, line 0x3faa740] 1 cycles
160596295000: system.ruby.cp_cntrl0.sequencer: Cache miss at [0x3faa740, line 0x3faa740]
   160596295000   0   CorePair       Ifetch0_L1hit      S>S      [0x3faa740, line 0x3faa740] 
   160596295500   0        Seq               Begin       >       [0x38b08, line 0x38b00] ST
   160596297000   0        Seq                Done       >       [0x38b08, line 0x38b00] 1 cycles
160596297000: system.ruby.cp_cntrl0.sequencer: Cache miss at [0x38b08, line 0x38b00]
   160596297000   0   CorePair      C0_Store_L1hit     M0>M0     [0x38b00, line 0x38b00] 
   160596297500   0        Seq               Begin       >       [0xfaa3f0, line 0xfaa3c0] IFETCH
   160596299000   0        Seq                Done       >       [0xfaa3f0, line 0xfaa3c0] 1 cycles
160596299000: system.ruby.cp_cntrl0.sequencer: Cache miss at [0xfaa3f0, line 0xfaa3c0]
   160596299000   0   CorePair       Ifetch0_L1hit      S>S      [0xfaa3c0, line 0xfaa3c0] 
   160596299500   0        Seq               Begin       >       [0xfaa3f0, line 0xfaa3c0] IFETCH
   160596301000   0        Seq                Done       >       [0xfaa3f0, line 0xfaa3c0] 1 cycles
160596301000: system.ruby.cp_cntrl0.sequencer: Cache miss at [0xfaa3f0, line 0xfaa3c0]
   160596301000   0   CorePair       Ifetch0_L1hit      S>S      [0xfaa3c0, line 0xfaa3c0] 
   160596301500   0        Seq               Begin       >       [0xfaa3f8, line 0xfaa3c0] IFETCH
   160596303000   0        Seq                Done       >       [0xfaa3f8, line 0xfaa3c0] 1 cycles
160596303000: system.ruby.cp_cntrl0.sequencer: Cache miss at [0xfaa3f8, line 0xfaa3c0]
   160596303000   0   CorePair       Ifetch0_L1hit      S>S      [0xfaa3c0, line 0xfaa3c0] 
   160596303500   0        Seq               Begin       >       [0xf90c20, line 0xf90c00] IFETCH
   160596305000   0        Seq                Done       >       [0xf90c20, line 0xf90c00] 1 cycles
160596305000: system.ruby.cp_cntrl0.sequencer: Cache miss at [0xf90c20, line 0xf90c00]
   160596305000   0   CorePair       Ifetch0_L1hit      S>S      [0xf90c00, line 0xf90c00] 
   160596305500   0        Seq               Begin       >       [0xc62610, line 0xc62600] LD
   160596307000   0        Seq                Done       >       [0xc62610, line 0xc62600] 1 cycles
160596307000: system.ruby.cp_cntrl0.sequencer: Cache miss at [0xc62610, line 0xc62600]
   160596307000   0   CorePair       C0_Load_L1hit      S>S      [0xc62600, line 0xc62600] 
   160596307500   0        Seq               Begin       >       [0x13a9710, line 0x13a9700] IFETCH
   160596309000   0        Seq                Done       >       [0x13a9710, line 0x13a9700] 1 cycles
160596309000: system.ruby.cp_cntrl0.sequencer: Cache miss at [0x13a9710, line 0x13a9700]
   160596309000   0   CorePair       Ifetch0_L1hit      S>S      [0x13a9700, line 0x13a9700] 
   160596309500   0        Seq               Begin       >       [0x13a9710, line 0x13a9700] IFETCH
   160596311000   0        Seq                Done       >       [0x13a9710, line 0x13a9700] 1 cycles
160596311000: system.ruby.cp_cntrl0.sequencer: Cache miss at [0x13a9710, line 0x13a9700]
   160596311000   0   CorePair       Ifetch0_L1hit      S>S      [0x13a9700, line 0x13a9700] 
   160596311500   0        Seq               Begin       >       [0x13a9718, line 0x13a9700] IFETCH
   160596313000   0        Seq                Done       >       [0x13a9718, line 0x13a9700] 1 cycles
160596313000: system.ruby.cp_cntrl0.sequencer: Cache miss at [0x13a9718, line 0x13a9700]
   160596313000   0   CorePair       Ifetch0_L1hit      S>S      [0x13a9700, line 0x13a9700] 
   160596313500   0        Seq               Begin       >       [0x13a9718, line 0x13a9700] IFETCH
   160596315000   0        Seq                Done       >       [0x13a9718, line 0x13a9700] 1 cycles
160596315000: system.ruby.cp_cntrl0.sequencer: Cache miss at [0x13a9718, line 0x13a9700]
   160596315000   0   CorePair       Ifetch0_L1hit      S>S      [0x13a9700, line 0x13a9700] 
   160596315500   0        Seq               Begin       >       [0x13a9718, line 0x13a9700] IFETCH
   160596317000   0        Seq                Done       >       [0x13a9718, line 0x13a9700] 1 cycles
160596317000: system.ruby.cp_cntrl0.sequencer: Cache miss at [0x13a9718, line 0x13a9700]
   160596317000   0   CorePair       Ifetch0_L1hit      S>S      [0x13a9700, line 0x13a9700] 
   160596317500   0        Seq               Begin       >       [0x13a9720, line 0x13a9700] IFETCH
   160596318000   1        DMA                Data BUSY_RD>READY  [0x294c080, line 0x294c080] 
   160596319000   0        Seq                Done       >       [0x13a9720, line 0x13a9700] 1 cycles
160596319000: system.ruby.cp_cntrl0.sequencer: Cache miss at [0x13a9720, line 0x13a9700]
   160596319000   0   CorePair       Ifetch0_L1hit      S>S      [0x13a9700, line 0x13a9700] 
   160596319500   0        Seq               Begin       >       [0x13a9720, line 0x13a9700] IFETCH
160596320000: system.dma_cntrl1: MOESI_AMD_Base-dma.sm:142: [DMARequestMsg: Type = READ PhysicalAddress = [0x294c000, line 0x294c000] LineAddress = [0x294c000, line 0x294c000] Requestor = DMA-1 Destination = [NetDest (20)  -  -  -  - 0 0 0 0 0 0 0 0 0 0 0 0 0 0 0 0 0 0 0 0 0 0 0 0 0 0 0 0 0 0 0 0 0 0 0 0 0 0 0 0 0 1 0 0 0 0 0 0 0 0 0 0 0 0 0 0 0 0 0 0 0 0 0 0  - 0 0  -  -  -  - 0 0  - 0 0 0 0  - 0 0 0 0 0 0 0 0  -  - 0 0  -  -  -  -  -  -  - ] DataBlk = [ 0x0 0x0 0x0 0x0 0x0 0x0 0x0 0x0 0x0 0x0 0x0 0x0 0x0 0x0 0x0 0x0 0x0 0x0 0x0 0x0 0x0 0x0 0x0 0x0 0x0 0x0 0x0 0x0 0x0 0x0 0x0 0x0 0x0 0x0 0x0 0x0 0x0 0x0 0x0 0x0 0x0 0x0 0x0 0x0 0x0 0x0 0x0 0x0 0x0 0x0 0x0 0x0 0x0 0x0 0x0 0x0 0x0 0x0 0x0 0x0 0x0 0x0 0x0 0x0 ] Len = 64 MessageSize = Writeback_Control ]
   160596320000   1        DMA         ReadRequest  READY>BUSY_RD [0x294c000, line 0x294c000] 
160596320000: system.dma_cntrl1: MOESI_AMD_Base-dma.sm:142: [DMARequestMsg: Type = READ PhysicalAddress = [0x294c040, line 0x294c040] LineAddress = [0x294c040, line 0x294c040] Requestor = DMA-1 Destination = [NetDest (20)  -  -  -  - 0 0 0 0 0 0 0 0 0 0 0 0 0 0 0 0 0 0 0 0 0 0 0 0 0 0 0 0 0 0 0 0 0 0 0 0 0 0 0 0 1 0 0 0 0 0 0 0 0 0 0 0 0 0 0 0 0 0 0 0 0 0 0 0  - 0 0  -  -  -  - 0 0  - 0 0 0 0  - 0 0 0 0 0 0 0 0  -  - 0 0  -  -  -  -  -  -  - ] DataBlk = [ 0x0 0x0 0x0 0x0 0x0 0x0 0x0 0x0 0x0 0x0 0x0 0x0 0x0 0x0 0x0 0x0 0x0 0x0 0x0 0x0 0x0 0x0 0x0 0x0 0x0 0x0 0x0 0x0 0x0 0x0 0x0 0x0 0x0 0x0 0x0 0x0 0x0 0x0 0x0 0x0 0x0 0x0 0x0 0x0 0x0 0x0 0x0 0x0 0x0 0x0 0x0 0x0 0x0 0x0 0x0 0x0 0x0 0x0 0x0 0x0 0x0 0x0 0x0 0x0 ] Len = 64 MessageSize = Writeback_Control ]
   160596320000   1        DMA         ReadRequest  READY>BUSY_RD [0x294c040, line 0x294c040] 
160596321000: system.dma_cntrl1: MOESI_AMD_Base-dma.sm:142: [DMARequestMsg: Type = READ PhysicalAddress = [0x294c080, line 0x294c080] LineAddress = [0x294c080, line 0x294c080] Requestor = DMA-1 Destination = [NetDest (20)  -  -  -  - 0 0 0 0 0 0 0 0 0 0 0 0 0 0 0 0 0 0 0 0 0 0 0 0 0 0 0 0 0 0 0 0 0 0 0 0 0 0 0 0 0 0 0 1 0 0 0 0 0 0 0 0 0 0 0 0 0 0 0 0 0 0 0 0  - 0 0  -  -  -  - 0 0  - 0 0 0 0  - 0 0 0 0 0 0 0 0  -  - 0 0  -  -  -  -  -  -  - ] DataBlk = [ 0x0 0x0 0x0 0x0 0x0 0x0 0x0 0x0 0x0 0x0 0x0 0x0 0x0 0x0 0x0 0x0 0x0 0x0 0x0 0x0 0x0 0x0 0x0 0x0 0x0 0x0 0x0 0x0 0x0 0x0 0x0 0x0 0x0 0x0 0x0 0x0 0x0 0x0 0x0 0x0 0x0 0x0 0x0 0x0 0x0 0x0 0x0 0x0 0x0 0x0 0x0 0x0 0x0 0x0 0x0 0x0 0x0 0x0 0x0 0x0 0x0 0x0 0x0 0x0 ] Len = 64 MessageSize = Writeback_Control ]
   160596321000   1        DMA         ReadRequest  READY>BUSY_RD [0x294c080, line 0x294c080] 
160596321000: system.dma_cntrl1: MOESI_AMD_Base-dma.sm:142: [DMARequestMsg: Type = READ PhysicalAddress = [0x294c0c0, line 0x294c0c0] LineAddress = [0x294c0c0, line 0x294c0c0] Requestor = DMA-1 Destination = [NetDest (20)  -  -  -  - 0 0 0 0 0 0 0 0 0 0 0 0 0 0 0 0 0 0 0 0 0 0 0 0 0 0 0 0 0 0 0 0 0 0 0 0 0 0 0 0 0 0 1 0 0 0 0 0 0 0 0 0 0 0 0 0 0 0 0 0 0 0 0 0  - 0 0  -  -  -  - 0 0  - 0 0 0 0  - 0 0 0 0 0 0 0 0  -  - 0 0  -  -  -  -  -  -  - ] DataBlk = [ 0x0 0x0 0x0 0x0 0x0 0x0 0x0 0x0 0x0 0x0 0x0 0x0 0x0 0x0 0x0 0x0 0x0 0x0 0x0 0x0 0x0 0x0 0x0 0x0 0x0 0x0 0x0 0x0 0x0 0x0 0x0 0x0 0x0 0x0 0x0 0x0 0x0 0x0 0x0 0x0 0x0 0x0 0x0 0x0 0x0 0x0 0x0 0x0 0x0 0x0 0x0 0x0 0x0 0x0 0x0 0x0 0x0 0x0 0x0 0x0 0x0 0x0 0x0 0x0 ] Len = 64 MessageSize = Writeback_Control ]
   160596321000   1        DMA         ReadRequest  READY>BUSY_RD [0x294c0c0, line 0x294c0c0] 
   160596321000   0        Seq                Done       >       [0x13a9720, line 0x13a9700] 1 cycles
160596321000: system.ruby.cp_cntrl0.sequencer: Cache miss at [0x13a9720, line 0x13a9700]
   160596321000   0   CorePair       Ifetch0_L1hit      S>S      [0x13a9700, line 0x13a9700] 
   160596321500   0        Seq               Begin       >       [0x13a9720, line 0x13a9700] IFETCH
   160596323000   0        Seq                Done       >       [0x13a9720, line 0x13a9700] 1 cycles
160596323000: system.ruby.cp_cntrl0.sequencer: Cache miss at [0x13a9720, line 0x13a9700]
   160596323000   0   CorePair       Ifetch0_L1hit      S>S      [0x13a9700, line 0x13a9700] 
   160596323500   0        Seq               Begin       >       [0x38b08, line 0x38b00] LD
   160596325000   0        Seq                Done       >       [0x38b08, line 0x38b00] 1 cycles
160596325000: system.ruby.cp_cntrl0.sequencer: Cache miss at [0x38b08, line 0x38b00]
   160596325000   0   CorePair       C0_Load_L1hit     M0>M0     [0x38b00, line 0x38b00] 
   160596325500   0        Seq               Begin       >       [0x3faa740, line 0x3faa740] IFETCH
   160596327000   0        Seq                Done       >       [0x3faa740, line 0x3faa740] 1 cycles
160596327000: system.ruby.cp_cntrl0.sequencer: Cache miss at [0x3faa740, line 0x3faa740]
   160596327000   0   CorePair       Ifetch0_L1hit      S>S      [0x3faa740, line 0x3faa740] 
   160596327500   0        Seq               Begin       >       [0x10d9e78, line 0x10d9e40] LD
   160596329000   0        Seq                Done       >       [0x10d9e78, line 0x10d9e40] 1 cycles
160596329000: system.ruby.cp_cntrl0.sequencer: Cache miss at [0x10d9e78, line 0x10d9e40]
   160596329000   0   CorePair       C0_Load_L1hit     M0>M0     [0x10d9e40, line 0x10d9e40] 
   160596329500   0        Seq               Begin       >       [0x3faa748, line 0x3faa740] IFETCH
   160596330000  41  Directory             DmaRead      U>BDR_PM [0x294c000, line 0x294c000]  sc: Acks remaining: 2
   160596331000  40  Directory             DmaRead      U>BDR_PM [0x294c040, line 0x294c040]  sc: Acks remaining: 2
   160596331000  63  Directory               RdBlk      U>B_PM   [0x10d7bc0, line 0x10d7bc0]  sc: Acks remaining: 1
   160596331000   0        Seq                Done       >       [0x3faa748, line 0x3faa740] 1 cycles
160596331000: system.ruby.cp_cntrl0.sequencer: Cache miss at [0x3faa748, line 0x3faa740]
   160596331000   0   CorePair       Ifetch0_L1hit      S>S      [0x3faa740, line 0x3faa740] 
   160596331500   0        Seq               Begin       >       [0x3faa748, line 0x3faa740] IFETCH
   160596332000  43  Directory             DmaRead      U>BDR_PM [0x294c080, line 0x294c080]  sc: Acks remaining: 2
   160596333000  42  Directory             DmaRead      U>BDR_PM [0x294c0c0, line 0x294c0c0]  sc: Acks remaining: 2
   160596333000   0        Seq                Done       >       [0x3faa748, line 0x3faa740] 1 cycles
160596333000: system.ruby.cp_cntrl0.sequencer: Cache miss at [0x3faa748, line 0x3faa740]
   160596333000   0   CorePair       Ifetch0_L1hit      S>S      [0x3faa740, line 0x3faa740] 
   160596333500   0        Seq               Begin       >       [0x3faa740, line 0x3faa740] IFETCH
   160596335000   0        Seq                Done       >       [0x3faa740, line 0x3faa740] 1 cycles
160596335000: system.ruby.cp_cntrl0.sequencer: Cache miss at [0x3faa740, line 0x3faa740]
   160596335000   0   CorePair       Ifetch0_L1hit      S>S      [0x3faa740, line 0x3faa740] 
   160596335500   0        Seq               Begin       >       [0x38b08, line 0x38b00] ST
   160596337000   0        Seq                Done       >       [0x38b08, line 0x38b00] 1 cycles
160596337000: system.ruby.cp_cntrl0.sequencer: Cache miss at [0x38b08, line 0x38b00]
   160596337000   0   CorePair      C0_Store_L1hit     M0>M0     [0x38b00, line 0x38b00] 
   160596337500   0        Seq               Begin       >       [0xfaa3f0, line 0xfaa3c0] IFETCH
   160596339000   0        Seq                Done       >       [0xfaa3f0, line 0xfaa3c0] 1 cycles
160596339000: system.ruby.cp_cntrl0.sequencer: Cache miss at [0xfaa3f0, line 0xfaa3c0]
   160596339000   0   CorePair       Ifetch0_L1hit      S>S      [0xfaa3c0, line 0xfaa3c0] 
   160596339500   0        Seq               Begin       >       [0xfaa3f0, line 0xfaa3c0] IFETCH
   160596341000   0        Seq                Done       >       [0xfaa3f0, line 0xfaa3c0] 1 cycles
160596341000: system.ruby.cp_cntrl0.sequencer: Cache miss at [0xfaa3f0, line 0xfaa3c0]
   160596341000   0   CorePair       Ifetch0_L1hit      S>S      [0xfaa3c0, line 0xfaa3c0] 
   160596341500   0        Seq               Begin       >       [0xfaa3f8, line 0xfaa3c0] IFETCH
   160596343000   0        Seq                Done       >       [0xfaa3f8, line 0xfaa3c0] 1 cycles
160596343000: system.ruby.cp_cntrl0.sequencer: Cache miss at [0xfaa3f8, line 0xfaa3c0]
   160596343000   0   CorePair       Ifetch0_L1hit      S>S      [0xfaa3c0, line 0xfaa3c0] 
   160596343500   0        Seq               Begin       >       [0xf90c20, line 0xf90c00] IFETCH
   160596344000  43  Directory             MemData BDR_PM>BDR_Pm [0x294c080, line 0x294c080] 
   160596345000   0        Seq                Done       >       [0xf90c20, line 0xf90c00] 1 cycles
160596345000: system.ruby.cp_cntrl0.sequencer: Cache miss at [0xf90c20, line 0xf90c00]
   160596345000   0   CorePair       Ifetch0_L1hit      S>S      [0xf90c00, line 0xf90c00] 
   160596345500   0        Seq               Begin       >       [0xc62610, line 0xc62600] LD
   160596347000   0        Seq                Done       >       [0xc62610, line 0xc62600] 1 cycles
160596347000: system.ruby.cp_cntrl0.sequencer: Cache miss at [0xc62610, line 0xc62600]
   160596347000   0   CorePair       C0_Load_L1hit      S>S      [0xc62600, line 0xc62600] 
   160596347500   0        Seq               Begin       >       [0x13a9710, line 0x13a9700] IFETCH
   160596349000   0        Seq                Done       >       [0x13a9710, line 0x13a9700] 1 cycles
160596349000: system.ruby.cp_cntrl0.sequencer: Cache miss at [0x13a9710, line 0x13a9700]
   160596349000   0   CorePair       Ifetch0_L1hit      S>S      [0x13a9700, line 0x13a9700] 
   160596349500   0        Seq               Begin       >       [0x13a9710, line 0x13a9700] IFETCH
   160596351000   0        Seq                Done       >       [0x13a9710, line 0x13a9700] 1 cycles
160596351000: system.ruby.cp_cntrl0.sequencer: Cache miss at [0x13a9710, line 0x13a9700]
   160596351000   0   CorePair       Ifetch0_L1hit      S>S      [0x13a9700, line 0x13a9700] 
   160596351500   0        Seq               Begin       >       [0x13a9718, line 0x13a9700] IFETCH
   160596353000   0        Seq                Done       >       [0x13a9718, line 0x13a9700] 1 cycles
160596353000: system.ruby.cp_cntrl0.sequencer: Cache miss at [0x13a9718, line 0x13a9700]
   160596353000   0   CorePair       Ifetch0_L1hit      S>S      [0x13a9700, line 0x13a9700] 
   160596353500   0        Seq               Begin       >       [0x13a9718, line 0x13a9700] IFETCH
   160596355000   0        Seq                Done       >       [0x13a9718, line 0x13a9700] 1 cycles
160596355000: system.ruby.cp_cntrl0.sequencer: Cache miss at [0x13a9718, line 0x13a9700]
   160596355000   0   CorePair       Ifetch0_L1hit      S>S      [0x13a9700, line 0x13a9700] 
   160596355500   0        Seq               Begin       >       [0x13a9718, line 0x13a9700] IFETCH
   160596357000   0        Seq                Done       >       [0x13a9718, line 0x13a9700] 1 cycles
160596357000: system.ruby.cp_cntrl0.sequencer: Cache miss at [0x13a9718, line 0x13a9700]
   160596357000   0   CorePair       Ifetch0_L1hit      S>S      [0x13a9700, line 0x13a9700] 
   160596357500   0        Seq               Begin       >       [0x13a9720, line 0x13a9700] IFETCH
   160596359000   0        Seq                Done       >       [0x13a9720, line 0x13a9700] 1 cycles
160596359000: system.ruby.cp_cntrl0.sequencer: Cache miss at [0x13a9720, line 0x13a9700]
   160596359000   0   CorePair       Ifetch0_L1hit      S>S      [0x13a9700, line 0x13a9700] 
   160596359500   0        Seq               Begin       >       [0x13a9720, line 0x13a9700] IFETCH
   160596361000   0        Seq                Done       >       [0x13a9720, line 0x13a9700] 1 cycles
160596361000: system.ruby.cp_cntrl0.sequencer: Cache miss at [0x13a9720, line 0x13a9700]
   160596361000   0   CorePair       Ifetch0_L1hit      S>S      [0x13a9700, line 0x13a9700] 
   160596361500   0        Seq               Begin       >       [0x13a9720, line 0x13a9700] IFETCH
   160596363000   0        Seq                Done       >       [0x13a9720, line 0x13a9700] 1 cycles
160596363000: system.ruby.cp_cntrl0.sequencer: Cache miss at [0x13a9720, line 0x13a9700]
   160596363000   0   CorePair       Ifetch0_L1hit      S>S      [0x13a9700, line 0x13a9700] 
   160596363500   0        Seq               Begin       >       [0x38b08, line 0x38b00] LD
   160596364000   0   CorePair          PrbShrData      I>I      [0x294c000, line 0x294c000] 
   160596364000   1   CorePair          PrbShrData     M0>O      [0x294c000, line 0x294c000] 
   160596365000   0   CorePair          PrbShrData     M0>O      [0x10d7bc0, line 0x10d7bc0] 
   160596365000   0        Seq                Done       >       [0x38b08, line 0x38b00] 1 cycles
160596365000: system.ruby.cp_cntrl0.sequencer: Cache miss at [0x38b08, line 0x38b00]
   160596365000   0   CorePair       C0_Load_L1hit     M0>M0     [0x38b00, line 0x38b00] 
   160596365500   0        Seq               Begin       >       [0x3faa740, line 0x3faa740] IFETCH
   160596366000   1   CorePair          PrbShrData     M0>O      [0x294c040, line 0x294c040] 
   160596366000   0   CorePair          PrbShrData      I>I      [0x294c040, line 0x294c040] 
   160596367000   1   CorePair          PrbShrData      S>S      [0x294c080, line 0x294c080] 
   160596367000   0   CorePair          PrbShrData      I>I      [0x294c080, line 0x294c080] 
   160596367000   0        Seq                Done       >       [0x3faa740, line 0x3faa740] 1 cycles
160596367000: system.ruby.cp_cntrl0.sequencer: Cache miss at [0x3faa740, line 0x3faa740]
   160596367000   0   CorePair       Ifetch0_L1hit      S>S      [0x3faa740, line 0x3faa740] 
   160596367500   0        Seq               Begin       >       [0x10d9e78, line 0x10d9e40] LD
   160596368000   1   CorePair          PrbShrData     M0>O      [0x294c0c0, line 0x294c0c0] 
   160596368000   0   CorePair          PrbShrData      I>I      [0x294c0c0, line 0x294c0c0] 
   160596369000   0        Seq                Done       >       [0x10d9e78, line 0x10d9e40] 1 cycles
160596369000: system.ruby.cp_cntrl0.sequencer: Cache miss at [0x10d9e78, line 0x10d9e40]
   160596369000   0   CorePair       C0_Load_L1hit     M0>M0     [0x10d9e40, line 0x10d9e40] 
   160596369500   0        Seq               Begin       >       [0x3faa748, line 0x3faa740] IFETCH
   160596371000   0        Seq                Done       >       [0x3faa748, line 0x3faa740] 1 cycles
160596371000: system.ruby.cp_cntrl0.sequencer: Cache miss at [0x3faa748, line 0x3faa740]
   160596371000   0   CorePair       Ifetch0_L1hit      S>S      [0x3faa740, line 0x3faa740] 
   160596371500   0        Seq               Begin       >       [0x3faa748, line 0x3faa740] IFETCH
   160596373000   0        Seq                Done       >       [0x3faa748, line 0x3faa740] 1 cycles
160596373000: system.ruby.cp_cntrl0.sequencer: Cache miss at [0x3faa748, line 0x3faa740]
   160596373000   0   CorePair       Ifetch0_L1hit      S>S      [0x3faa740, line 0x3faa740] 
   160596373500   0        Seq               Begin       >       [0x3faa740, line 0x3faa740] IFETCH
   160596375000   0        Seq                Done       >       [0x3faa740, line 0x3faa740] 1 cycles
160596375000: system.ruby.cp_cntrl0.sequencer: Cache miss at [0x3faa740, line 0x3faa740]
   160596375000   0   CorePair       Ifetch0_L1hit      S>S      [0x3faa740, line 0x3faa740] 
   160596375500   0        Seq               Begin       >       [0x38b08, line 0x38b00] ST
   160596377000   0        Seq                Done       >       [0x38b08, line 0x38b00] 1 cycles
160596377000: system.ruby.cp_cntrl0.sequencer: Cache miss at [0x38b08, line 0x38b00]
   160596377000   0   CorePair      C0_Store_L1hit     M0>M0     [0x38b00, line 0x38b00] 
   160596377500   0        Seq               Begin       >       [0xfaa3f0, line 0xfaa3c0] IFETCH
   160596379000   0        Seq                Done       >       [0xfaa3f0, line 0xfaa3c0] 1 cycles
160596379000: system.ruby.cp_cntrl0.sequencer: Cache miss at [0xfaa3f0, line 0xfaa3c0]
   160596379000   0   CorePair       Ifetch0_L1hit      S>S      [0xfaa3c0, line 0xfaa3c0] 
   160596379500   0        Seq               Begin       >       [0xfaa3f0, line 0xfaa3c0] IFETCH
   160596381000   0        Seq                Done       >       [0xfaa3f0, line 0xfaa3c0] 1 cycles
160596381000: system.ruby.cp_cntrl0.sequencer: Cache miss at [0xfaa3f0, line 0xfaa3c0]
   160596381000   0   CorePair       Ifetch0_L1hit      S>S      [0xfaa3c0, line 0xfaa3c0] 
   160596381500   0        Seq               Begin       >       [0xfaa3f8, line 0xfaa3c0] IFETCH
   160596383000   0        Seq                Done       >       [0xfaa3f8, line 0xfaa3c0] 1 cycles
160596383000: system.ruby.cp_cntrl0.sequencer: Cache miss at [0xfaa3f8, line 0xfaa3c0]
   160596383000   0   CorePair       Ifetch0_L1hit      S>S      [0xfaa3c0, line 0xfaa3c0] 
   160596383500   0        Seq               Begin       >       [0xf90c20, line 0xf90c00] IFETCH
   160596385000   0        Seq                Done       >       [0xf90c20, line 0xf90c00] 1 cycles
160596385000: system.ruby.cp_cntrl0.sequencer: Cache miss at [0xf90c20, line 0xf90c00]
   160596385000   0   CorePair       Ifetch0_L1hit      S>S      [0xf90c00, line 0xf90c00] 
   160596385500   0        Seq               Begin       >       [0xc62610, line 0xc62600] LD
   160596387000  41  Directory             MemData BDR_PM>BDR_Pm [0x294c000, line 0x294c000] 
   160596387000   0        Seq                Done       >       [0xc62610, line 0xc62600] 1 cycles
160596387000: system.ruby.cp_cntrl0.sequencer: Cache miss at [0xc62610, line 0xc62600]
   160596387000   0   CorePair       C0_Load_L1hit      S>S      [0xc62600, line 0xc62600] 
   160596387500   0        Seq               Begin       >       [0x13a9710, line 0x13a9700] IFETCH
   160596388000  63  Directory             MemData   B_PM>B_Pm   [0x10d7bc0, line 0x10d7bc0] 
   160596388000  40  Directory             MemData BDR_PM>BDR_Pm [0x294c040, line 0x294c040] 
   160596389000   0        Seq                Done       >       [0x13a9710, line 0x13a9700] 1 cycles
160596389000: system.ruby.cp_cntrl0.sequencer: Cache miss at [0x13a9710, line 0x13a9700]
   160596389000   0   CorePair       Ifetch0_L1hit      S>S      [0x13a9700, line 0x13a9700] 
   160596389500   0        Seq               Begin       >       [0x13a9710, line 0x13a9700] IFETCH
   160596390000  42  Directory             MemData BDR_PM>BDR_Pm [0x294c0c0, line 0x294c0c0] 
   160596391000   0        Seq                Done       >       [0x13a9710, line 0x13a9700] 1 cycles
160596391000: system.ruby.cp_cntrl0.sequencer: Cache miss at [0x13a9710, line 0x13a9700]
   160596391000   0   CorePair       Ifetch0_L1hit      S>S      [0x13a9700, line 0x13a9700] 
   160596391500   0        Seq               Begin       >       [0x13a9718, line 0x13a9700] IFETCH
   160596393000   0        Seq                Done       >       [0x13a9718, line 0x13a9700] 1 cycles
160596393000: system.ruby.cp_cntrl0.sequencer: Cache miss at [0x13a9718, line 0x13a9700]
   160596393000   0   CorePair       Ifetch0_L1hit      S>S      [0x13a9700, line 0x13a9700] 
   160596393500   0        Seq               Begin       >       [0x13a9718, line 0x13a9700] IFETCH
   160596395000   0        Seq                Done       >       [0x13a9718, line 0x13a9700] 1 cycles
160596395000: system.ruby.cp_cntrl0.sequencer: Cache miss at [0x13a9718, line 0x13a9700]
   160596395000   0   CorePair       Ifetch0_L1hit      S>S      [0x13a9700, line 0x13a9700] 
   160596395500   0        Seq               Begin       >       [0x13a9718, line 0x13a9700] IFETCH
   160596397000   0        Seq                Done       >       [0x13a9718, line 0x13a9700] 1 cycles
160596397000: system.ruby.cp_cntrl0.sequencer: Cache miss at [0x13a9718, line 0x13a9700]
   160596397000   0   CorePair       Ifetch0_L1hit      S>S      [0x13a9700, line 0x13a9700] 
   160596397500   0        Seq               Begin       >       [0x13a9720, line 0x13a9700] IFETCH
   160596399000   0        Seq                Done       >       [0x13a9720, line 0x13a9700] 1 cycles
160596399000: system.ruby.cp_cntrl0.sequencer: Cache miss at [0x13a9720, line 0x13a9700]
   160596399000   0   CorePair       Ifetch0_L1hit      S>S      [0x13a9700, line 0x13a9700] 
   160596399500   0        Seq               Begin       >       [0x13a9720, line 0x13a9700] IFETCH
   160596401000   0        Seq                Done       >       [0x13a9720, line 0x13a9700] 1 cycles
160596401000: system.ruby.cp_cntrl0.sequencer: Cache miss at [0x13a9720, line 0x13a9700]
   160596401000   0   CorePair       Ifetch0_L1hit      S>S      [0x13a9700, line 0x13a9700] 
   160596401500   0        Seq               Begin       >       [0x13a9720, line 0x13a9700] IFETCH
   160596403000   0        Seq                Done       >       [0x13a9720, line 0x13a9700] 1 cycles
160596403000: system.ruby.cp_cntrl0.sequencer: Cache miss at [0x13a9720, line 0x13a9700]
   160596403000   0   CorePair       Ifetch0_L1hit      S>S      [0x13a9700, line 0x13a9700] 
   160596403500   0        Seq               Begin       >       [0x38b08, line 0x38b00] LD
   160596405000   0        Seq                Done       >       [0x38b08, line 0x38b00] 1 cycles
160596405000: system.ruby.cp_cntrl0.sequencer: Cache miss at [0x38b08, line 0x38b00]
   160596405000   0   CorePair       C0_Load_L1hit     M0>M0     [0x38b00, line 0x38b00] 
   160596405500   0        Seq               Begin       >       [0x3faa740, line 0x3faa740] IFETCH
   160596407000   0        Seq                Done       >       [0x3faa740, line 0x3faa740] 1 cycles
160596407000: system.ruby.cp_cntrl0.sequencer: Cache miss at [0x3faa740, line 0x3faa740]
   160596407000   0   CorePair       Ifetch0_L1hit      S>S      [0x3faa740, line 0x3faa740] 
   160596407500   0        Seq               Begin       >       [0x10d9e78, line 0x10d9e40] LD
   160596409000   0        Seq                Done       >       [0x10d9e78, line 0x10d9e40] 1 cycles
160596409000: system.ruby.cp_cntrl0.sequencer: Cache miss at [0x10d9e78, line 0x10d9e40]
   160596409000   0   CorePair       C0_Load_L1hit     M0>M0     [0x10d9e40, line 0x10d9e40] 
   160596409500   0        Seq               Begin       >       [0x3faa748, line 0x3faa740] IFETCH
   160596411000   0        Seq                Done       >       [0x3faa748, line 0x3faa740] 1 cycles
160596411000: system.ruby.cp_cntrl0.sequencer: Cache miss at [0x3faa748, line 0x3faa740]
   160596411000   0   CorePair       Ifetch0_L1hit      S>S      [0x3faa740, line 0x3faa740] 
   160596411500   0        Seq               Begin       >       [0x3faa748, line 0x3faa740] IFETCH
   160596413000   0        Seq                Done       >       [0x3faa748, line 0x3faa740] 1 cycles
160596413000: system.ruby.cp_cntrl0.sequencer: Cache miss at [0x3faa748, line 0x3faa740]
   160596413000   0   CorePair       Ifetch0_L1hit      S>S      [0x3faa740, line 0x3faa740] 
   160596413500   0        Seq               Begin       >       [0x3faa740, line 0x3faa740] IFETCH
   160596415000   0        Seq                Done       >       [0x3faa740, line 0x3faa740] 1 cycles
160596415000: system.ruby.cp_cntrl0.sequencer: Cache miss at [0x3faa740, line 0x3faa740]
   160596415000   0   CorePair       Ifetch0_L1hit      S>S      [0x3faa740, line 0x3faa740] 
   160596415500   0        Seq               Begin       >       [0x38b08, line 0x38b00] ST
[...]
   160600362000   1   CorePair       Ifetch0_L1hit      S>S      [0x3fab880, line 0x3fab880] 
   160600362500   2        Seq               Begin       >       [0x3fab8b8, line 0x3fab880] IFETCH
   160600363000   0        Seq                Done       >       [0x13a9720, line 0x13a9700] 1 cycles
160600363000: system.ruby.cp_cntrl0.sequencer: Cache miss at [0x13a9720, line 0x13a9700]
   160600363000   0   CorePair       Ifetch0_L1hit      S>S      [0x13a9700, line 0x13a9700] 
   160600363500   0        Seq               Begin       >       [0x38b08, line 0x38b00] LD
   160600364000   2        Seq                Done       >       [0x3fab8b8, line 0x3fab880] 1 cycles
160600364000: system.ruby.cp_cntrl1.sequencer: Cache miss at [0x3fab8b8, line 0x3fab880]
   160600364000   1   CorePair       Ifetch0_L1hit      S>S      [0x3fab880, line 0x3fab880] 
   160600364500   2        Seq               Begin       >       [0x3fab8c0, line 0x3fab8c0] IFETCH
   160600365000   0        Seq                Done       >       [0x38b08, line 0x38b00] 1 cycles
160600365000: system.ruby.cp_cntrl0.sequencer: Cache miss at [0x38b08, line 0x38b00]
   160600365000   0   CorePair       C0_Load_L1hit     M0>M0     [0x38b00, line 0x38b00] 
   160600365500   0        Seq               Begin       >       [0x3faa740, line 0x3faa740] IFETCH
   160600366000   2        Seq                Done       >       [0x3fab8c0, line 0x3fab8c0] 1 cycles
160600366000: system.ruby.cp_cntrl1.sequencer: Cache miss at [0x3fab8c0, line 0x3fab8c0]
   160600366000   1   CorePair       Ifetch0_L1hit      S>S      [0x3fab8c0, line 0x3fab8c0] 
   160600366500   2        Seq               Begin       >       [0x139ec40, line 0x139ec40] LD
   160600367000   0        Seq                Done       >       [0x3faa740, line 0x3faa740] 1 cycles
160600367000: system.ruby.cp_cntrl0.sequencer: Cache miss at [0x3faa740, line 0x3faa740]
   160600367000   0   CorePair       Ifetch0_L1hit      S>S      [0x3faa740, line 0x3faa740] 
   160600367500   0        Seq               Begin       >       [0x10d9e78, line 0x10d9e40] LD
   160600368000   2        Seq                Done       >       [0x139ec40, line 0x139ec40] 1 cycles
160600368000: system.ruby.cp_cntrl1.sequencer: Cache miss at [0x139ec40, line 0x139ec40]
   160600368000   1   CorePair       C0_Load_L1hit     M0>M0     [0x139ec40, line 0x139ec40] 
   160600368500   2        Seq               Begin       >       [0x3fab8c0, line 0x3fab8c0] IFETCH
   160600369000   0        Seq                Done       >       [0x10d9e78, line 0x10d9e40] 1 cycles
160600369000: system.ruby.cp_cntrl0.sequencer: Cache miss at [0x10d9e78, line 0x10d9e40]
   160600369000   0   CorePair       C0_Load_L1hit     M0>M0     [0x10d9e40, line 0x10d9e40] 
   160600369500   0        Seq               Begin       >       [0x3faa748, line 0x3faa740] IFETCH
   160600370000   2        Seq                Done       >       [0x3fab8c0, line 0x3fab8c0] 1 cycles
160600370000: system.ruby.cp_cntrl1.sequencer: Cache miss at [0x3fab8c0, line 0x3fab8c0]
   160600370000   1   CorePair       Ifetch0_L1hit      S>S      [0x3fab8c0, line 0x3fab8c0] 
   160600370500   2        Seq               Begin       >       [0x139ec48, line 0x139ec40] LD
   160600371000   0        Seq                Done       >       [0x3faa748, line 0x3faa740] 1 cycles
160600371000: system.ruby.cp_cntrl0.sequencer: Cache miss at [0x3faa748, line 0x3faa740]
   160600371000   0   CorePair       Ifetch0_L1hit      S>S      [0x3faa740, line 0x3faa740] 
   160600371500   0        Seq               Begin       >       [0x3faa748, line 0x3faa740] IFETCH
   160600372000   2        Seq                Done       >       [0x139ec48, line 0x139ec40] 1 cycles
160600372000: system.ruby.cp_cntrl1.sequencer: Cache miss at [0x139ec48, line 0x139ec40]
   160600372000   1   CorePair       C0_Load_L1hit     M0>M0     [0x139ec40, line 0x139ec40] 
   160600372500   2        Seq               Begin       >       [0x3fab8c0, line 0x3fab8c0] IFETCH
   160600373000   0        Seq                Done       >       [0x3faa748, line 0x3faa740] 1 cycles
160600373000: system.ruby.cp_cntrl0.sequencer: Cache miss at [0x3faa748, line 0x3faa740]
   160600373000   0   CorePair       Ifetch0_L1hit      S>S      [0x3faa740, line 0x3faa740] 
   160600373500   0        Seq               Begin       >       [0x3faa740, line 0x3faa740] IFETCH
   160600374000   2        Seq                Done       >       [0x3fab8c0, line 0x3fab8c0] 1 cycles
160600374000: system.ruby.cp_cntrl1.sequencer: Cache miss at [0x3fab8c0, line 0x3fab8c0]
   160600374000   1   CorePair       Ifetch0_L1hit      S>S      [0x3fab8c0, line 0x3fab8c0] 
   160600374500   2        Seq               Begin       >       [0x139ec50, line 0x139ec40] LD
   160600375000   0        Seq                Done       >       [0x3faa740, line 0x3faa740] 1 cycles
160600375000: system.ruby.cp_cntrl0.sequencer: Cache miss at [0x3faa740, line 0x3faa740]
   160600375000   0   CorePair       Ifetch0_L1hit      S>S      [0x3faa740, line 0x3faa740] 
   160600375500   0        Seq               Begin       >       [0x38b08, line 0x38b00] ST
   160600376000   2        Seq                Done       >       [0x139ec50, line 0x139ec40] 1 cycles
160600376000: system.ruby.cp_cntrl1.sequencer: Cache miss at [0x139ec50, line 0x139ec40]
   160600376000   1   CorePair       C0_Load_L1hit     M0>M0     [0x139ec40, line 0x139ec40] 
   160600376500   2        Seq               Begin       >       [0x3fab8c0, line 0x3fab8c0] IFETCH
   160600377000   0        Seq                Done       >       [0x38b08, line 0x38b00] 1 cycles
160600377000: system.ruby.cp_cntrl0.sequencer: Cache miss at [0x38b08, line 0x38b00]
   160600377000   0   CorePair      C0_Store_L1hit     M0>M0     [0x38b00, line 0x38b00] 
   160600377500   0        Seq               Begin       >       [0xfaa3f0, line 0xfaa3c0] IFETCH
   160600378000   2        Seq                Done       >       [0x3fab8c0, line 0x3fab8c0] 1 cycles
160600378000: system.ruby.cp_cntrl1.sequencer: Cache miss at [0x3fab8c0, line 0x3fab8c0]
   160600378000   1   CorePair       Ifetch0_L1hit      S>S      [0x3fab8c0, line 0x3fab8c0] 
   160600378500   2        Seq               Begin       >       [0x139ec58, line 0x139ec40] LD
   160600379000   0        Seq                Done       >       [0xfaa3f0, line 0xfaa3c0] 1 cycles
160600379000: system.ruby.cp_cntrl0.sequencer: Cache miss at [0xfaa3f0, line 0xfaa3c0]
   160600379000   0   CorePair       Ifetch0_L1hit      S>S      [0xfaa3c0, line 0xfaa3c0] 
   160600379500   0        Seq               Begin       >       [0xfaa3f0, line 0xfaa3c0] IFETCH
   160600380000   2        Seq                Done       >       [0x139ec58, line 0x139ec40] 1 cycles
160600380000: system.ruby.cp_cntrl1.sequencer: Cache miss at [0x139ec58, line 0x139ec40]
   160600380000   1   CorePair       C0_Load_L1hit     M0>M0     [0x139ec40, line 0x139ec40] 
   160600380500   2        Seq               Begin       >       [0x3fab8c0, line 0x3fab8c0] IFETCH
   160600381000   0        Seq                Done       >       [0xfaa3f0, line 0xfaa3c0] 1 cycles
160600381000: system.ruby.cp_cntrl0.sequencer: Cache miss at [0xfaa3f0, line 0xfaa3c0]
   160600381000   0   CorePair       Ifetch0_L1hit      S>S      [0xfaa3c0, line 0xfaa3c0] 
   160600381500   0        Seq               Begin       >       [0xfaa3f8, line 0xfaa3c0] IFETCH
   160600382000   2        Seq                Done       >       [0x3fab8c0, line 0x3fab8c0] 1 cycles
160600382000: system.ruby.cp_cntrl1.sequencer: Cache miss at [0x3fab8c0, line 0x3fab8c0]
   160600382000   1   CorePair       Ifetch0_L1hit      S>S      [0x3fab8c0, line 0x3fab8c0] 
   160600382500   2        Seq               Begin       >       [0x139ec60, line 0x139ec40] LD
   160600383000   0        Seq                Done       >       [0xfaa3f8, line 0xfaa3c0] 1 cycles
160600383000: system.ruby.cp_cntrl0.sequencer: Cache miss at [0xfaa3f8, line 0xfaa3c0]
   160600383000   0   CorePair       Ifetch0_L1hit      S>S      [0xfaa3c0, line 0xfaa3c0] 
   160600383500   0        Seq               Begin       >       [0xf90c20, line 0xf90c00] IFETCH
   160600384000   2        Seq                Done       >       [0x139ec60, line 0x139ec40] 1 cycles
160600384000: system.ruby.cp_cntrl1.sequencer: Cache miss at [0x139ec60, line 0x139ec40]
   160600384000   1   CorePair       C0_Load_L1hit     M0>M0     [0x139ec40, line 0x139ec40] 
   160600384500   2        Seq               Begin       >       [0x3fab8c8, line 0x3fab8c0] IFETCH
   160600385000   0        Seq                Done       >       [0xf90c20, line 0xf90c00] 1 cycles
160600385000: system.ruby.cp_cntrl0.sequencer: Cache miss at [0xf90c20, line 0xf90c00]
   160600385000   0   CorePair       Ifetch0_L1hit      S>S      [0xf90c00, line 0xf90c00] 
   160600385500   0        Seq               Begin       >       [0xc62610, line 0xc62600] LD
   160600386000   2        Seq                Done       >       [0x3fab8c8, line 0x3fab8c0] 1 cycles
160600386000: system.ruby.cp_cntrl1.sequencer: Cache miss at [0x3fab8c8, line 0x3fab8c0]
   160600386000   1   CorePair       Ifetch0_L1hit      S>S      [0x3fab8c0, line 0x3fab8c0] 
   160600386500   2        Seq               Begin       >       [0x139ec68, line 0x139ec40] LD
   160600387000   0        Seq                Done       >       [0xc62610, line 0xc62600] 1 cycles
160600387000: system.ruby.cp_cntrl0.sequencer: Cache miss at [0xc62610, line 0xc62600]
   160600387000   0   CorePair       C0_Load_L1hit      S>S      [0xc62600, line 0xc62600] 
   160600387500   0        Seq               Begin       >       [0x13a9710, line 0x13a9700] IFETCH
   160600388000   2        Seq                Done       >       [0x139ec68, line 0x139ec40] 1 cycles
160600388000: system.ruby.cp_cntrl1.sequencer: Cache miss at [0x139ec68, line 0x139ec40]
   160600388000   1   CorePair       C0_Load_L1hit     M0>M0     [0x139ec40, line 0x139ec40] 
   160600388500   2        Seq               Begin       >       [0x13aa0f8, line 0x13aa0c0] IFETCH
   160600389000   0        Seq                Done       >       [0x13a9710, line 0x13a9700] 1 cycles
160600389000: system.ruby.cp_cntrl0.sequencer: Cache miss at [0x13a9710, line 0x13a9700]
   160600389000   0   CorePair       Ifetch0_L1hit      S>S      [0x13a9700, line 0x13a9700] 
   160600389500   0        Seq               Begin       >       [0x13a9710, line 0x13a9700] IFETCH
   160600390000   2        Seq                Done       >       [0x13aa0f8, line 0x13aa0c0] 1 cycles
160600390000: system.ruby.cp_cntrl1.sequencer: Cache miss at [0x13aa0f8, line 0x13aa0c0]
   160600390000   1   CorePair       Ifetch0_L1hit      S>S      [0x13aa0c0, line 0x13aa0c0] 
   160600390500   2        Seq               Begin       >       [0x13aa100, line 0x13aa100] IFETCH
   160600391000   0        Seq                Done       >       [0x13a9710, line 0x13a9700] 1 cycles
160600391000: system.ruby.cp_cntrl0.sequencer: Cache miss at [0x13a9710, line 0x13a9700]
   160600391000   0   CorePair       Ifetch0_L1hit      S>S      [0x13a9700, line 0x13a9700] 
   160600391500   0        Seq               Begin       >       [0x13a9718, line 0x13a9700] IFETCH
   160600392000   2        Seq                Done       >       [0x13aa100, line 0x13aa100] 1 cycles
160600392000: system.ruby.cp_cntrl1.sequencer: Cache miss at [0x13aa100, line 0x13aa100]
   160600392000   1   CorePair       Ifetch0_L1hit      S>S      [0x13aa100, line 0x13aa100] 
   160600392500   2        Seq               Begin       >       [0x10cf370, line 0x10cf340] LD
   160600393000   0        Seq                Done       >       [0x13a9718, line 0x13a9700] 1 cycles
160600393000: system.ruby.cp_cntrl0.sequencer: Cache miss at [0x13a9718, line 0x13a9700]
   160600393000   0   CorePair       Ifetch0_L1hit      S>S      [0x13a9700, line 0x13a9700] 
   160600393500   0        Seq               Begin       >       [0x13a9718, line 0x13a9700] IFETCH
   160600394000   2        Seq                Done       >       [0x10cf370, line 0x10cf340] 1 cycles
160600394000: system.ruby.cp_cntrl1.sequencer: Cache miss at [0x10cf370, line 0x10cf340]
   160600394000   1   CorePair       C0_Load_L1hit     M0>M0     [0x10cf340, line 0x10cf340] 
   160600394500   2        Seq               Begin       >       [0x13aa100, line 0x13aa100] IFETCH
   160600395000   0        Seq                Done       >       [0x13a9718, line 0x13a9700] 1 cycles
160600395000: system.ruby.cp_cntrl0.sequencer: Cache miss at [0x13a9718, line 0x13a9700]
   160600395000   0   CorePair       Ifetch0_L1hit      S>S      [0x13a9700, line 0x13a9700] 
   160600395500   0        Seq               Begin       >       [0x13a9718, line 0x13a9700] IFETCH
   160600396000   2        Seq                Done       >       [0x13aa100, line 0x13aa100] 1 cycles
160600396000: system.ruby.cp_cntrl1.sequencer: Cache miss at [0x13aa100, line 0x13aa100]
   160600396000   1   CorePair       Ifetch0_L1hit      S>S      [0x13aa100, line 0x13aa100] 
   160600396500   2        Seq               Begin       >       [0x13aa100, line 0x13aa100] IFETCH
   160600397000   0        Seq                Done       >       [0x13a9718, line 0x13a9700] 1 cycles
160600397000: system.ruby.cp_cntrl0.sequencer: Cache miss at [0x13a9718, line 0x13a9700]
   160600397000   0   CorePair       Ifetch0_L1hit      S>S      [0x13a9700, line 0x13a9700] 
   160600397500   0        Seq               Begin       >       [0x13a9720, line 0x13a9700] IFETCH
   160600398000   2        Seq                Done       >       [0x13aa100, line 0x13aa100] 1 cycles
160600398000: system.ruby.cp_cntrl1.sequencer: Cache miss at [0x13aa100, line 0x13aa100]
   160600398000   1   CorePair       Ifetch0_L1hit      S>S      [0x13aa100, line 0x13aa100] 
   160600398500   2        Seq               Begin       >       [0x13aa108, line 0x13aa100] IFETCH
   160600399000   0        Seq                Done       >       [0x13a9720, line 0x13a9700] 1 cycles
160600399000: system.ruby.cp_cntrl0.sequencer: Cache miss at [0x13a9720, line 0x13a9700]
   160600399000   0   CorePair       Ifetch0_L1hit      S>S      [0x13a9700, line 0x13a9700] 
   160600399500   0        Seq               Begin       >       [0x13a9720, line 0x13a9700] IFETCH
   160600400000   2        Seq                Done       >       [0x13aa108, line 0x13aa100] 1 cycles
160600400000: system.ruby.cp_cntrl1.sequencer: Cache miss at [0x13aa108, line 0x13aa100]
   160600400000   1   CorePair       Ifetch0_L1hit      S>S      [0x13aa100, line 0x13aa100] 
   160600400500   2        Seq               Begin       >       [0x13aa108, line 0x13aa100] IFETCH
   160600401000   0        Seq                Done       >       [0x13a9720, line 0x13a9700] 1 cycles
160600401000: system.ruby.cp_cntrl0.sequencer: Cache miss at [0x13a9720, line 0x13a9700]
   160600401000   0   CorePair       Ifetch0_L1hit      S>S      [0x13a9700, line 0x13a9700] 
   160600401500   0        Seq               Begin       >       [0x13a9720, line 0x13a9700] IFETCH
   160600402000   2        Seq                Done       >       [0x13aa108, line 0x13aa100] 1 cycles
160600402000: system.ruby.cp_cntrl1.sequencer: Cache miss at [0x13aa108, line 0x13aa100]
   160600402000   1   CorePair       Ifetch0_L1hit      S>S      [0x13aa100, line 0x13aa100] 
   160600402500   2        Seq               Begin       >       [0xc67318, line 0xc67300] LD
   160600403000   0        Seq                Done       >       [0x13a9720, line 0x13a9700] 1 cycles
160600403000: system.ruby.cp_cntrl0.sequencer: Cache miss at [0x13a9720, line 0x13a9700]
   160600403000   0   CorePair       Ifetch0_L1hit      S>S      [0x13a9700, line 0x13a9700] 
   160600403500   0        Seq               Begin       >       [0x38b08, line 0x38b00] LD
   160600404000   2        Seq                Done       >       [0xc67318, line 0xc67300] 1 cycles
160600404000: system.ruby.cp_cntrl1.sequencer: Cache miss at [0xc67318, line 0xc67300]
   160600404000   1   CorePair       C0_Load_L1hit     E0>E0     [0xc67300, line 0xc67300] 
   160600404500   2        Seq               Begin       >       [0x139ec68, line 0x139ec40] ST
   160600405000   0        Seq                Done       >       [0x38b08, line 0x38b00] 1 cycles
160600405000: system.ruby.cp_cntrl0.sequencer: Cache miss at [0x38b08, line 0x38b00]
   160600405000   0   CorePair       C0_Load_L1hit     M0>M0     [0x38b00, line 0x38b00] 
   160600405500   0        Seq               Begin       >       [0x3faa740, line 0x3faa740] IFETCH
   160600406000   2        Seq                Done       >       [0x139ec68, line 0x139ec40] 1 cycles
160600406000: system.ruby.cp_cntrl1.sequencer: Cache miss at [0x139ec68, line 0x139ec40]
   160600406000   1   CorePair      C0_Store_L1hit     M0>M0     [0x139ec40, line 0x139ec40] 
   160600406500   2        Seq               Begin       >       [0x3fb2e10, line 0x3fb2e00] IFETCH
   160600407000   0        Seq                Done       >       [0x3faa740, line 0x3faa740] 1 cycles
160600407000: system.ruby.cp_cntrl0.sequencer: Cache miss at [0x3faa740, line 0x3faa740]
   160600407000   0   CorePair       Ifetch0_L1hit      S>S      [0x3faa740, line 0x3faa740] 
   160600407500   0        Seq               Begin       >       [0x10d9e78, line 0x10d9e40] LD
   160600408000   2        Seq                Done       >       [0x3fb2e10, line 0x3fb2e00] 1 cycles
160600408000: system.ruby.cp_cntrl1.sequencer: Cache miss at [0x3fb2e10, line 0x3fb2e00]
   160600408000   1   CorePair       Ifetch0_L1hit      S>S      [0x3fb2e00, line 0x3fb2e00] 
   160600408275  12        Seq                Done       >       [0x401f140, line 0x401f140] 979 cycles
160600408275: system.ruby.sqc_cntrl0.sequencer: Cache hit at [0x401f140, line 0x401f140]
   160600408275   0        SQC                Data     IV>V      [0x401f140, line 0x401f140] [ 0x0 0x0 0x81 0xbf 0x0 0x0 0x0 0x0 0x0 0x0 0x0 0x0 0x0 0x0 0x0 0x0 0x0 0x0 0x0 0x0 0x0 0x0 0x0 0x0 0x0 0x0 0x0 0x0 0x0 0x0 0x0 0x0 0x0 0x0 0x0 0x0 0x0 0x0 0x0 0x0 0x0 0x0 0x0 0x0 0x0 0x0 0x0 0x0 0x0 0x0 0x0 0x0 0x0 0x0 0x0 0x0 0x0 0x0 0x0 0x0 0x0 0x0 0x0 0x0 ]
   160600408500   2        Seq               Begin       >       [0x3fb2e10, line 0x3fb2e00] IFETCH
   160600409000   0        Seq                Done       >       [0x10d9e78, line 0x10d9e40] 1 cycles
160600409000: system.ruby.cp_cntrl0.sequencer: Cache miss at [0x10d9e78, line 0x10d9e40]
   160600409000   0   CorePair       C0_Load_L1hit     M0>M0     [0x10d9e40, line 0x10d9e40] 
   160600409500   0        Seq               Begin       >       [0x3faa748, line 0x3faa740] IFETCH
   160600410000   2        Seq                Done       >       [0x3fb2e10, line 0x3fb2e00] 1 cycles
160600410000: system.ruby.cp_cntrl1.sequencer: Cache miss at [0x3fb2e10, line 0x3fb2e00]
   160600410000   1   CorePair       Ifetch0_L1hit      S>S      [0x3fb2e00, line 0x3fb2e00] 
   160600410500   2        Seq               Begin       >       [0x1399b90, line 0x1399b80] LD
   160600411000   0        Seq                Done       >       [0x3faa748, line 0x3faa740] 1 cycles
160600411000: system.ruby.cp_cntrl0.sequencer: Cache miss at [0x3faa748, line 0x3faa740]
   160600411000   0   CorePair       Ifetch0_L1hit      S>S      [0x3faa740, line 0x3faa740] 
   160600411500   0        Seq               Begin       >       [0x3faa748, line 0x3faa740] IFETCH
   160600412000   2        Seq                Done       >       [0x1399b90, line 0x1399b80] 1 cycles
160600412000: system.ruby.cp_cntrl1.sequencer: Cache miss at [0x1399b90, line 0x1399b80]
   160600412000   1   CorePair       C0_Load_L1hit     M0>M0     [0x1399b80, line 0x1399b80] 
   160600412500   2        Seq               Begin       >       [0x3fb2e10, line 0x3fb2e00] IFETCH
Dummy value = 0
Ticks: 167668792500
Exiting because  exiting with last active thread context
