Global frequency set at 1000000000000 ticks per second
Forcing maxCoalescedReqs to 32 (TLB assoc.) 
Forcing maxCoalescedReqs to 32 (TLB assoc.) 
Forcing maxCoalescedReqs to 32 (TLB assoc.) 
Forcing maxCoalescedReqs to 32 (TLB assoc.) 
Forcing maxCoalescedReqs to 32 (TLB assoc.) 
Forcing maxCoalescedReqs to 32 (TLB assoc.) 
Forcing maxCoalescedReqs to 32 (TLB assoc.) 
Forcing maxCoalescedReqs to 32 (TLB assoc.) 
gem5 Simulator System.  https://www.gem5.org
gem5 is copyrighted software; use the --copyright option for details.

gem5 version DEVELOP-FOR-23.1
gem5 compiled Mar 12 2024 02:02:35
gem5 started Mar 12 2024 15:14:53
gem5 executing on 8611f6da7609, pid 1
command line: build/VEGA_X86/gem5.opt --debug-flag=RubyHitMiss --debug-start=351481350151 --debug-end=351484154010 configs/example/apu_se.py -n 3 --dgpu --gfx-version=gfx900 --num-compute-units=4 --cu-per-sa=4 --num-gpu-complex=1 --reg-alloc-policy=dynamic --num-tccs=8 --num-dirs=64 --mem-size=16GB --mem-type=HBM_2000_4H_1x64 --vreg-file-size=16384 --sreg-file-size=800 --tcc-size=4MB --gpu-clock=1801MHz --ruby-clock=1000MHz --vrf_lm_bus_latency=6 --mem-req-latency=69 --mem-resp-latency=69 --mandatory_queue_latency=1 --max-cu-tokens=160 --max-coalesces-per-cycle=10 --sqc-size=16kB --tcp-size=16kB --scalar-mem-req-latency=28 --TCP_latency=4 --tcp-assoc=16 --tcp-num-banks=16 --TCC_latency=121 --tcc-assoc=16 --tcc-tag-access-latency=1 --tcc-data-access-latency=1 --tcp-rp=FIFORP --WB_L2 --tcc-rp=FIFORP -c L2_one_miss

info: Standard input is not a terminal, disabling listeners.
Num SQC =  1 Num scalar caches =  1 Num CU =  4
351481352000: system.ruby.cp_cntrl0.sequencer: Cache miss at [0x38b08, line 0x38b00]
351481354000: system.ruby.cp_cntrl0.sequencer: Cache miss at [0x4faa740, line 0x4faa740]
351481356000: system.ruby.cp_cntrl0.sequencer: Cache miss at [0x10cf0b8, line 0x10cf080]
351481358000: system.ruby.cp_cntrl0.sequencer: Cache miss at [0x4faa748, line 0x4faa740]
351481360000: system.ruby.cp_cntrl0.sequencer: Cache miss at [0x4faa748, line 0x4faa740]
351481362000: system.ruby.cp_cntrl0.sequencer: Cache miss at [0x4faa740, line 0x4faa740]
351481364000: system.ruby.cp_cntrl0.sequencer: Cache miss at [0x38b08, line 0x38b00]
351481366000: system.ruby.cp_cntrl0.sequencer: Cache miss at [0xfaa3f0, line 0xfaa3c0]
351481368000: system.ruby.cp_cntrl0.sequencer: Cache miss at [0xfaa3f0, line 0xfaa3c0]
351481370000: system.ruby.cp_cntrl0.sequencer: Cache miss at [0xfaa3f8, line 0xfaa3c0]
351481372000: system.ruby.cp_cntrl0.sequencer: Cache miss at [0xf90c20, line 0xf90c00]
351481374000: system.ruby.cp_cntrl0.sequencer: Cache miss at [0xc62610, line 0xc62600]
351481376000: system.ruby.cp_cntrl0.sequencer: Cache miss at [0x23a9710, line 0x23a9700]
351481378000: system.ruby.cp_cntrl0.sequencer: Cache miss at [0x23a9710, line 0x23a9700]
351481380000: system.ruby.cp_cntrl0.sequencer: Cache miss at [0x23a9718, line 0x23a9700]
351481382000: system.ruby.cp_cntrl0.sequencer: Cache miss at [0x23a9718, line 0x23a9700]
351481384000: system.ruby.dir_cntrl43.L3CacheMemory: profiledemandMiss 132351481384000: system.ruby.cp_cntrl0.sequencer: Cache miss at [0x23a9718, line 0x23a9700]
351481386000: system.ruby.cp_cntrl0.sequencer: Cache miss at [0x23a9720, line 0x23a9700]
351481388000: system.ruby.cp_cntrl0.sequencer: Cache miss at [0x23a9720, line 0x23a9700]
351481390000: system.ruby.cp_cntrl0.sequencer: Cache miss at [0x23a9720, line 0x23a9700]
351481392000: system.ruby.cp_cntrl0.sequencer: Cache miss at [0x38b08, line 0x38b00]
351481392330: system.ruby.sqc_cntrl0: GPU_VIPER-SQC.sm:330: in SQC uu_profileDataMiss
351481392330: system.ruby.sqc_cntrl0.L1cache: profiledemandMiss 9351481394000: system.ruby.cp_cntrl0.sequencer: Cache miss at [0x4faa740, line 0x4faa740]
351481396000: system.ruby.cp_cntrl0.sequencer: Cache miss at [0x10cf0b8, line 0x10cf080]
351481398000: system.ruby.cp_cntrl0.sequencer: Cache miss at [0x4faa748, line 0x4faa740]
351481400000: system.ruby.cp_cntrl0.sequencer: Cache miss at [0x4faa748, line 0x4faa740]
351481402000: system.ruby.cp_cntrl0.sequencer: Cache miss at [0x4faa740, line 0x4faa740]
351481404000: system.ruby.cp_cntrl0.sequencer: Cache miss at [0x38b08, line 0x38b00]
351481406000: system.ruby.cp_cntrl0.sequencer: Cache miss at [0xfaa3f0, line 0xfaa3c0]
351481408000: system.ruby.cp_cntrl0.sequencer: Cache miss at [0xfaa3f0, line 0xfaa3c0]
351481410000: system.ruby.cp_cntrl0.sequencer: Cache miss at [0xfaa3f8, line 0xfaa3c0]
351481412000: system.ruby.cp_cntrl0.sequencer: Cache miss at [0xf90c20, line 0xf90c00]
351481414000: system.ruby.cp_cntrl0.sequencer: Cache miss at [0xc62610, line 0xc62600]
351481416000: system.ruby.cp_cntrl0.sequencer: Cache miss at [0x23a9710, line 0x23a9700]
351481418000: system.ruby.cp_cntrl0.sequencer: Cache miss at [0x23a9710, line 0x23a9700]
351481420000: system.ruby.cp_cntrl0.sequencer: Cache miss at [0x23a9718, line 0x23a9700]
351481422000: system.ruby.cp_cntrl0.sequencer: Cache miss at [0x23a9718, line 0x23a9700]
351481424000: system.ruby.cp_cntrl0.sequencer: Cache miss at [0x23a9718, line 0x23a9700]
351481426000: system.ruby.cp_cntrl0.sequencer: Cache miss at [0x23a9720, line 0x23a9700]
351481428000: system.ruby.cp_cntrl0.sequencer: Cache miss at [0x23a9720, line 0x23a9700]
351481430000: system.ruby.cp_cntrl0.sequencer: Cache miss at [0x23a9720, line 0x23a9700]
351481432000: system.ruby.cp_cntrl0.sequencer: Cache miss at [0x38b08, line 0x38b00]
351481434000: system.ruby.cp_cntrl0.sequencer: Cache miss at [0x4faa740, line 0x4faa740]
351481436000: system.ruby.cp_cntrl0.sequencer: Cache miss at [0x10cf0b8, line 0x10cf080]
351481438000: system.ruby.cp_cntrl0.sequencer: Cache miss at [0x4faa748, line 0x4faa740]
351481440000: system.ruby.cp_cntrl0.sequencer: Cache miss at [0x4faa748, line 0x4faa740]
351481442000: system.ruby.cp_cntrl0.sequencer: Cache miss at [0x4faa740, line 0x4faa740]
351481444000: system.ruby.cp_cntrl0.sequencer: Cache miss at [0x38b08, line 0x38b00]
351481446000: system.ruby.cp_cntrl0.sequencer: Cache miss at [0xfaa3f0, line 0xfaa3c0]
351481448000: system.ruby.cp_cntrl0.sequencer: Cache miss at [0xfaa3f0, line 0xfaa3c0]
351481450000: system.ruby.cp_cntrl0.sequencer: Cache miss at [0xfaa3f8, line 0xfaa3c0]
351481452000: system.ruby.cp_cntrl0.sequencer: Cache miss at [0xf90c20, line 0xf90c00]
351481454000: system.ruby.cp_cntrl0.sequencer: Cache miss at [0xc62610, line 0xc62600]
351481456000: system.ruby.cp_cntrl0.sequencer: Cache miss at [0x23a9710, line 0x23a9700]
351481458000: system.ruby.cp_cntrl0.sequencer: Cache miss at [0x23a9710, line 0x23a9700]
351481460000: system.ruby.cp_cntrl0.sequencer: Cache miss at [0x23a9718, line 0x23a9700]
351481462000: system.ruby.cp_cntrl0.sequencer: Cache miss at [0x23a9718, line 0x23a9700]
351481464000: system.ruby.cp_cntrl0.sequencer: Cache miss at [0x23a9718, line 0x23a9700]
351481466000: system.ruby.cp_cntrl0.sequencer: Cache miss at [0x23a9720, line 0x23a9700]
351481468000: system.ruby.cp_cntrl0.sequencer: Cache miss at [0x23a9720, line 0x23a9700]
351481470000: system.ruby.cp_cntrl0.sequencer: Cache miss at [0x23a9720, line 0x23a9700]
351481472000: system.ruby.cp_cntrl0.sequencer: Cache miss at [0x38b08, line 0x38b00]
351481474000: system.ruby.cp_cntrl0.sequencer: Cache miss at [0x4faa740, line 0x4faa740]
351481476000: system.ruby.cp_cntrl0.sequencer: Cache miss at [0x10cf0b8, line 0x10cf080]
351481478000: system.ruby.cp_cntrl0.sequencer: Cache miss at [0x4faa748, line 0x4faa740]
351481480000: system.ruby.cp_cntrl0.sequencer: Cache miss at [0x4faa748, line 0x4faa740]
351481482000: system.ruby.cp_cntrl0.sequencer: Cache miss at [0x4faa740, line 0x4faa740]
351481484000: system.ruby.cp_cntrl0.sequencer: Cache miss at [0x38b08, line 0x38b00]
351481486000: system.ruby.cp_cntrl0.sequencer: Cache miss at [0xfaa3f0, line 0xfaa3c0]
351481488000: system.ruby.cp_cntrl0.sequencer: Cache miss at [0xfaa3f0, line 0xfaa3c0]
351481490000: system.ruby.cp_cntrl0.sequencer: Cache miss at [0xfaa3f8, line 0xfaa3c0]
351481492000: system.ruby.cp_cntrl0.sequencer: Cache miss at [0xf90c20, line 0xf90c00]
351481494000: system.ruby.cp_cntrl0.sequencer: Cache miss at [0xc62610, line 0xc62600]
351481496000: system.ruby.cp_cntrl0.sequencer: Cache miss at [0x23a9710, line 0x23a9700]
351481498000: system.ruby.cp_cntrl0.sequencer: Cache miss at [0x23a9710, line 0x23a9700]
351481500000: system.ruby.cp_cntrl0.sequencer: Cache miss at [0x23a9718, line 0x23a9700]
351481502000: system.ruby.cp_cntrl0.sequencer: Cache miss at [0x23a9718, line 0x23a9700]
351481504000: system.ruby.cp_cntrl0.sequencer: Cache miss at [0x23a9718, line 0x23a9700]
351481506000: system.ruby.cp_cntrl0.sequencer: Cache miss at [0x23a9720, line 0x23a9700]
351481508000: system.ruby.cp_cntrl0.sequencer: Cache miss at [0x23a9720, line 0x23a9700]
351481510000: system.ruby.cp_cntrl0.sequencer: Cache miss at [0x23a9720, line 0x23a9700]
351481511000: system.ruby.dir_cntrl32.L3CacheMemory: profiledemandMiss 118351481512000: system.ruby.cp_cntrl0.sequencer: Cache miss at [0x38b08, line 0x38b00]
351481514000: system.ruby.cp_cntrl0.sequencer: Cache miss at [0x4faa740, line 0x4faa740]
351481516000: system.ruby.cp_cntrl0.sequencer: Cache miss at [0x10cf0b8, line 0x10cf080]
351481516095: system.ruby.tcc_cntrl0.L2cache: profiledemandMiss 37351481516095: system.ruby.tcc_cntrl0: GPU_VIPER-TCC.sm:639: in TCC Miss profile
351481518000: system.ruby.cp_cntrl0.sequencer: Cache miss at [0x4faa748, line 0x4faa740]
351481520000: system.ruby.cp_cntrl0.sequencer: Cache miss at [0x4faa748, line 0x4faa740]
351481522000: system.ruby.cp_cntrl0.sequencer: Cache miss at [0x4faa740, line 0x4faa740]
351481524000: system.ruby.cp_cntrl0.sequencer: Cache miss at [0x38b08, line 0x38b00]
351481526000: system.ruby.cp_cntrl0.sequencer: Cache miss at [0xfaa3f0, line 0xfaa3c0]
351481528000: system.ruby.cp_cntrl0.sequencer: Cache miss at [0xfaa3f0, line 0xfaa3c0]
351481530000: system.ruby.cp_cntrl0.sequencer: Cache miss at [0xfaa3f8, line 0xfaa3c0]
351481532000: system.ruby.cp_cntrl0.sequencer: Cache miss at [0xf90c20, line 0xf90c00]
351481534000: system.ruby.cp_cntrl0.sequencer: Cache miss at [0xc62610, line 0xc62600]
351481536000: system.ruby.cp_cntrl0.sequencer: Cache miss at [0x23a9710, line 0x23a9700]
351481538000: system.ruby.cp_cntrl0.sequencer: Cache miss at [0x23a9710, line 0x23a9700]
351481540000: system.ruby.cp_cntrl0.sequencer: Cache miss at [0x23a9718, line 0x23a9700]
351481542000: system.ruby.cp_cntrl0.sequencer: Cache miss at [0x23a9718, line 0x23a9700]
351481544000: system.ruby.cp_cntrl0.sequencer: Cache miss at [0x23a9718, line 0x23a9700]
351481546000: system.ruby.cp_cntrl0.sequencer: Cache miss at [0x23a9720, line 0x23a9700]
351481548000: system.ruby.cp_cntrl0.sequencer: Cache miss at [0x23a9720, line 0x23a9700]
351481550000: system.ruby.cp_cntrl0.sequencer: Cache miss at [0x23a9720, line 0x23a9700]
351481552000: system.ruby.cp_cntrl0.sequencer: Cache miss at [0x38b08, line 0x38b00]
351481554000: system.ruby.cp_cntrl0.sequencer: Cache miss at [0x4faa740, line 0x4faa740]
351481556000: system.ruby.cp_cntrl0.sequencer: Cache miss at [0x10cf0b8, line 0x10cf080]
351481558000: system.ruby.cp_cntrl0.sequencer: Cache miss at [0x4faa748, line 0x4faa740]
351481560000: system.ruby.cp_cntrl0.sequencer: Cache miss at [0x4faa748, line 0x4faa740]
351481562000: system.ruby.cp_cntrl0.sequencer: Cache miss at [0x4faa740, line 0x4faa740]
351481564000: system.ruby.cp_cntrl0.sequencer: Cache miss at [0x38b08, line 0x38b00]
351481566000: system.ruby.cp_cntrl0.sequencer: Cache miss at [0xfaa3f0, line 0xfaa3c0]
351481568000: system.ruby.cp_cntrl0.sequencer: Cache miss at [0xfaa3f0, line 0xfaa3c0]
351481570000: system.ruby.cp_cntrl0.sequencer: Cache miss at [0xfaa3f8, line 0xfaa3c0]
351481572000: system.ruby.cp_cntrl0.sequencer: Cache miss at [0xf90c20, line 0xf90c00]
351481574000: system.ruby.cp_cntrl0.sequencer: Cache miss at [0xc62610, line 0xc62600]
351481576000: system.ruby.cp_cntrl0.sequencer: Cache miss at [0x23a9710, line 0x23a9700]
351481577000: system.ruby.cp_cntrl1.sequencer: Cache hit at [0x10d5ec8, line 0x10d5ec0]
351481578000: system.ruby.cp_cntrl0.sequencer: Cache miss at [0x23a9710, line 0x23a9700]
351481579000: system.ruby.cp_cntrl1.sequencer: Cache miss at [0x10d5ec8, line 0x10d5ec0]
351481580000: system.ruby.cp_cntrl0.sequencer: Cache miss at [0x23a9718, line 0x23a9700]
351481581000: system.ruby.cp_cntrl1.sequencer: Cache miss at [0x238dfd0, line 0x238dfc0]
351481582000: system.ruby.cp_cntrl0.sequencer: Cache miss at [0x23a9718, line 0x23a9700]
351481583000: system.ruby.cp_cntrl1.sequencer: Cache miss at [0x238dfd0, line 0x238dfc0]
351481584000: system.ruby.cp_cntrl0.sequencer: Cache miss at [0x23a9718, line 0x23a9700]
351481585000: system.ruby.cp_cntrl1.sequencer: Cache miss at [0x238dfd0, line 0x238dfc0]
351481586000: system.ruby.cp_cntrl0.sequencer: Cache miss at [0x23a9720, line 0x23a9700]
351481587000: system.ruby.cp_cntrl1.sequencer: Cache miss at [0x238dfd8, line 0x238dfc0]
351481588000: system.ruby.cp_cntrl0.sequencer: Cache miss at [0x23a9720, line 0x23a9700]
351481589000: system.ruby.cp_cntrl1.sequencer: Cache miss at [0x238dfd8, line 0x238dfc0]
351481590000: system.ruby.cp_cntrl0.sequencer: Cache miss at [0x23a9720, line 0x23a9700]
351481591000: system.ruby.cp_cntrl1.sequencer: Cache miss at [0x239ec68, line 0x239ec40]
351481592000: system.ruby.cp_cntrl0.sequencer: Cache miss at [0x38b08, line 0x38b00]
351481593000: system.ruby.cp_cntrl1.sequencer: Cache miss at [0xf9b290, line 0xf9b280]
351481594000: system.ruby.cp_cntrl0.sequencer: Cache miss at [0x4faa740, line 0x4faa740]
351481595000: system.ruby.cp_cntrl1.sequencer: Cache miss at [0xf9b290, line 0xf9b280]
351481596000: system.ruby.cp_cntrl0.sequencer: Cache miss at [0x10cf0b8, line 0x10cf080]
351481597000: system.ruby.cp_cntrl1.sequencer: Cache miss at [0xf9b298, line 0xf9b280]
351481598000: system.ruby.cp_cntrl0.sequencer: Cache miss at [0x4faa748, line 0x4faa740]
351481599000: system.ruby.cp_cntrl1.L1Icache: profiledemandMiss 244351481600000: system.ruby.cp_cntrl0.sequencer: Cache miss at [0x4faa748, line 0x4faa740]
351481602000: system.ruby.cp_cntrl0.sequencer: Cache miss at [0x4faa740, line 0x4faa740]
351481604000: system.ruby.cp_cntrl0.sequencer: Cache miss at [0x38b08, line 0x38b00]
351481606000: system.ruby.cp_cntrl0.sequencer: Cache miss at [0xfaa3f0, line 0xfaa3c0]
351481608000: system.ruby.cp_cntrl0.sequencer: Cache miss at [0xfaa3f0, line 0xfaa3c0]
351481610000: system.ruby.cp_cntrl0.sequencer: Cache miss at [0xfaa3f8, line 0xfaa3c0]
351481612000: system.ruby.cp_cntrl0.sequencer: Cache miss at [0xf90c20, line 0xf90c00]
351481614000: system.ruby.cp_cntrl0.sequencer: Cache miss at [0xc62610, line 0xc62600]
351481616000: system.ruby.cp_cntrl0.sequencer: Cache miss at [0x23a9710, line 0x23a9700]
351481617000: system.ruby.cp_cntrl1.sequencer: Cache miss at [0xfaa0d0, line 0xfaa0c0]
351481618000: system.ruby.cp_cntrl0.sequencer: Cache miss at [0x23a9710, line 0x23a9700]
351481619000: system.ruby.cp_cntrl1.sequencer: Cache miss at [0xfaa0d0, line 0xfaa0c0]
351481620000: system.ruby.cp_cntrl0.sequencer: Cache miss at [0x23a9718, line 0x23a9700]
351481621000: system.ruby.cp_cntrl1.sequencer: Cache miss at [0xfaa0d8, line 0xfaa0c0]
351481622000: system.ruby.cp_cntrl0.sequencer: Cache miss at [0x23a9718, line 0x23a9700]
351481623000: system.ruby.cp_cntrl1.L1Icache: profiledemandMiss 245351481624000: system.ruby.cp_cntrl0.sequencer: Cache miss at [0x23a9718, line 0x23a9700]
351481626000: system.ruby.cp_cntrl0.sequencer: Cache miss at [0x23a9720, line 0x23a9700]
351481628000: system.ruby.cp_cntrl0.sequencer: Cache miss at [0x23a9720, line 0x23a9700]
351481630000: system.ruby.cp_cntrl0.sequencer: Cache miss at [0x23a9720, line 0x23a9700]
351481632000: system.ruby.cp_cntrl0.sequencer: Cache miss at [0x38b08, line 0x38b00]
351481634000: system.ruby.cp_cntrl0.sequencer: Cache miss at [0x4faa740, line 0x4faa740]
351481636000: system.ruby.cp_cntrl0.sequencer: Cache miss at [0x10cf0b8, line 0x10cf080]
351481638000: system.ruby.cp_cntrl0.sequencer: Cache miss at [0x4faa748, line 0x4faa740]
351481640000: system.ruby.cp_cntrl0.sequencer: Cache miss at [0x4faa748, line 0x4faa740]
351481641000: system.ruby.cp_cntrl1.sequencer: Cache miss at [0xfa80a0, line 0xfa8080]
351481642000: system.ruby.cp_cntrl0.sequencer: Cache miss at [0x4faa740, line 0x4faa740]
351481643000: system.ruby.cp_cntrl1.sequencer: Cache miss at [0x4aea0, line 0x4ae80]
351481644000: system.ruby.cp_cntrl0.sequencer: Cache miss at [0x38b08, line 0x38b00]
351481645000: system.ruby.cp_cntrl1.sequencer: Cache miss at [0xc906d0, line 0xc906c0]
351481646000: system.ruby.cp_cntrl0.sequencer: Cache miss at [0xfaa3f0, line 0xfaa3c0]
351481647000: system.ruby.cp_cntrl1.sequencer: Cache miss at [0xc906d0, line 0xc906c0]
351481648000: system.ruby.cp_cntrl0.sequencer: Cache miss at [0xfaa3f0, line 0xfaa3c0]
351481649000: system.ruby.cp_cntrl1.sequencer: Cache miss at [0xc906d8, line 0xc906c0]
351481650000: system.ruby.cp_cntrl0.sequencer: Cache miss at [0xfaa3f8, line 0xfaa3c0]
351481651000: system.ruby.cp_cntrl1.sequencer: Cache miss at [0x53ef8, line 0x53ec0]
351481652000: system.ruby.cp_cntrl0.sequencer: Cache miss at [0xf90c20, line 0xf90c00]
351481653000: system.ruby.cp_cntrl1.sequencer: Cache miss at [0xc906d8, line 0xc906c0]
351481654000: system.ruby.cp_cntrl0.sequencer: Cache miss at [0xc62610, line 0xc62600]
351481655000: system.ruby.cp_cntrl1.sequencer: Cache miss at [0xc906e0, line 0xc906c0]
351481656000: system.ruby.cp_cntrl0.sequencer: Cache miss at [0x23a9710, line 0x23a9700]
351481657000: system.ruby.cp_cntrl1.sequencer: Cache miss at [0xc84e48, line 0xc84e40]
351481658000: system.ruby.cp_cntrl0.sequencer: Cache miss at [0x23a9710, line 0x23a9700]
351481659000: system.ruby.cp_cntrl1.sequencer: Cache miss at [0xc906e0, line 0xc906c0]
351481660000: system.ruby.cp_cntrl0.sequencer: Cache miss at [0x23a9718, line 0x23a9700]
351481661000: system.ruby.cp_cntrl1.sequencer: Cache miss at [0xc906e0, line 0xc906c0]
351481662000: system.ruby.cp_cntrl0.sequencer: Cache miss at [0x23a9718, line 0x23a9700]
351481663000: system.ruby.cp_cntrl1.sequencer: Cache miss at [0xc906e8, line 0xc906c0]
351481664000: system.ruby.cp_cntrl0.sequencer: Cache miss at [0x23a9718, line 0x23a9700]
351481665000: system.ruby.cp_cntrl1.sequencer: Cache miss at [0xc906e8, line 0xc906c0]
351481666000: system.ruby.cp_cntrl0.sequencer: Cache miss at [0x23a9720, line 0x23a9700]
351481667000: system.ruby.cp_cntrl1.sequencer: Cache miss at [0xc906e8, line 0xc906c0]
351481668000: system.ruby.cp_cntrl0.sequencer: Cache miss at [0x23a9720, line 0x23a9700]
351481669000: system.ruby.cp_cntrl1.sequencer: Cache miss at [0xc906f0, line 0xc906c0]
351481670000: system.ruby.cp_cntrl0.sequencer: Cache miss at [0x23a9720, line 0x23a9700]
351481671000: system.ruby.cp_cntrl1.L2cache: profiledemandMiss 516351481671000: system.ruby.cp_cntrl1.L1D0cache: profiledemandMiss 277351481672000: system.ruby.dir_cntrl32.L3CacheMemory: profiledemandMiss 119351481672000: system.ruby.cp_cntrl0.sequencer: Cache miss at [0x38b08, line 0x38b00]
351481674000: system.ruby.cp_cntrl0.sequencer: Cache miss at [0x4faa740, line 0x4faa740]
351481676000: system.ruby.cp_cntrl0.sequencer: Cache miss at [0x10cf0b8, line 0x10cf080]
351481678000: system.ruby.cp_cntrl0.sequencer: Cache miss at [0x4faa748, line 0x4faa740]
351481680000: system.ruby.cp_cntrl0.sequencer: Cache miss at [0x4faa748, line 0x4faa740]
351481682000: system.ruby.cp_cntrl0.sequencer: Cache miss at [0x4faa740, line 0x4faa740]
351481684000: system.ruby.cp_cntrl0.sequencer: Cache miss at [0x38b08, line 0x38b00]
351481686000: system.ruby.cp_cntrl0.sequencer: Cache miss at [0xfaa3f0, line 0xfaa3c0]
351481688000: system.ruby.cp_cntrl0.sequencer: Cache miss at [0xfaa3f0, line 0xfaa3c0]
351481690000: system.ruby.cp_cntrl0.sequencer: Cache miss at [0xfaa3f8, line 0xfaa3c0]
351481692000: system.ruby.cp_cntrl0.sequencer: Cache miss at [0xf90c20, line 0xf90c00]
351481694000: system.ruby.cp_cntrl0.sequencer: Cache miss at [0xc62610, line 0xc62600]
351481696000: system.ruby.cp_cntrl0.sequencer: Cache miss at [0x23a9710, line 0x23a9700]
351481698000: system.ruby.cp_cntrl0.sequencer: Cache miss at [0x23a9710, line 0x23a9700]
351481700000: system.ruby.cp_cntrl0.sequencer: Cache miss at [0x23a9718, line 0x23a9700]
351481702000: system.ruby.cp_cntrl0.sequencer: Cache miss at [0x23a9718, line 0x23a9700]
351481704000: system.ruby.cp_cntrl0.sequencer: Cache miss at [0x23a9718, line 0x23a9700]
351481706000: system.ruby.cp_cntrl0.sequencer: Cache miss at [0x23a9720, line 0x23a9700]
351481708000: system.ruby.cp_cntrl0.sequencer: Cache miss at [0x23a9720, line 0x23a9700]
351481710000: system.ruby.cp_cntrl0.sequencer: Cache miss at [0x23a9720, line 0x23a9700]
351481712000: system.ruby.cp_cntrl0.sequencer: Cache miss at [0x38b08, line 0x38b00]
351481714000: system.ruby.cp_cntrl0.sequencer: Cache miss at [0x4faa740, line 0x4faa740]
351481716000: system.ruby.cp_cntrl0.sequencer: Cache miss at [0x10cf0b8, line 0x10cf080]
351481718000: system.ruby.cp_cntrl0.sequencer: Cache miss at [0x4faa748, line 0x4faa740]
351481720000: system.ruby.cp_cntrl0.sequencer: Cache miss at [0x4faa748, line 0x4faa740]
351481722000: system.ruby.cp_cntrl0.sequencer: Cache miss at [0x4faa740, line 0x4faa740]
351481724000: system.ruby.cp_cntrl0.sequencer: Cache miss at [0x38b08, line 0x38b00]
351481726000: system.ruby.cp_cntrl0.sequencer: Cache miss at [0xfaa3f0, line 0xfaa3c0]
351481728000: system.ruby.cp_cntrl0.sequencer: Cache miss at [0xfaa3f0, line 0xfaa3c0]
351481730000: system.ruby.cp_cntrl0.sequencer: Cache miss at [0xfaa3f8, line 0xfaa3c0]
351481732000: system.ruby.cp_cntrl0.sequencer: Cache miss at [0xf90c20, line 0xf90c00]
351481734000: system.ruby.cp_cntrl0.sequencer: Cache miss at [0xc62610, line 0xc62600]
351481736000: system.ruby.cp_cntrl0.sequencer: Cache miss at [0x23a9710, line 0x23a9700]
351481738000: system.ruby.cp_cntrl0.sequencer: Cache miss at [0x23a9710, line 0x23a9700]
351481740000: system.ruby.cp_cntrl0.sequencer: Cache miss at [0x23a9718, line 0x23a9700]
351481742000: system.ruby.cp_cntrl0.sequencer: Cache miss at [0x23a9718, line 0x23a9700]
351481744000: system.ruby.cp_cntrl0.sequencer: Cache miss at [0x23a9718, line 0x23a9700]
351481746000: system.ruby.cp_cntrl0.sequencer: Cache miss at [0x23a9720, line 0x23a9700]
351481748000: system.ruby.cp_cntrl0.sequencer: Cache miss at [0x23a9720, line 0x23a9700]
351481750000: system.ruby.cp_cntrl0.sequencer: Cache miss at [0x23a9720, line 0x23a9700]
351481752000: system.ruby.cp_cntrl0.sequencer: Cache miss at [0x38b08, line 0x38b00]
351481754000: system.ruby.cp_cntrl0.sequencer: Cache miss at [0x4faa740, line 0x4faa740]
351481756000: system.ruby.cp_cntrl0.sequencer: Cache miss at [0x10cf0b8, line 0x10cf080]
351481758000: system.ruby.cp_cntrl0.sequencer: Cache miss at [0x4faa748, line 0x4faa740]
351481760000: system.ruby.cp_cntrl0.sequencer: Cache miss at [0x4faa748, line 0x4faa740]
351481762000: system.ruby.cp_cntrl0.sequencer: Cache miss at [0x4faa740, line 0x4faa740]
351481764000: system.ruby.cp_cntrl0.sequencer: Cache miss at [0x38b08, line 0x38b00]
351481766000: system.ruby.cp_cntrl0.sequencer: Cache miss at [0xfaa3f0, line 0xfaa3c0]
351481768000: system.ruby.cp_cntrl0.sequencer: Cache miss at [0xfaa3f0, line 0xfaa3c0]
351481770000: system.ruby.cp_cntrl0.sequencer: Cache miss at [0xfaa3f8, line 0xfaa3c0]
351481772000: system.ruby.cp_cntrl0.sequencer: Cache miss at [0xf90c20, line 0xf90c00]
351481774000: system.ruby.cp_cntrl0.sequencer: Cache miss at [0xc62610, line 0xc62600]
351481776000: system.ruby.cp_cntrl0.sequencer: Cache miss at [0x23a9710, line 0x23a9700]
351481778000: system.ruby.cp_cntrl0.sequencer: Cache miss at [0x23a9710, line 0x23a9700]
351481780000: system.ruby.cp_cntrl0.sequencer: Cache miss at [0x23a9718, line 0x23a9700]
351481782000: system.ruby.cp_cntrl0.sequencer: Cache miss at [0x23a9718, line 0x23a9700]
351481784000: system.ruby.cp_cntrl0.sequencer: Cache miss at [0x23a9718, line 0x23a9700]
351481786000: system.ruby.cp_cntrl0.sequencer: Cache miss at [0x23a9720, line 0x23a9700]
351481788000: system.ruby.cp_cntrl0.sequencer: Cache miss at [0x23a9720, line 0x23a9700]
351481790000: system.ruby.cp_cntrl0.sequencer: Cache miss at [0x23a9720, line 0x23a9700]
351481792000: system.ruby.cp_cntrl0.sequencer: Cache miss at [0x38b08, line 0x38b00]
351481794000: system.ruby.cp_cntrl0.sequencer: Cache miss at [0x4faa740, line 0x4faa740]
351481796000: system.ruby.dir_cntrl39.L3CacheMemory: profiledemandMiss 140351481796000: system.ruby.cp_cntrl0.sequencer: Cache miss at [0x10cf0b8, line 0x10cf080]
351481798000: system.ruby.cp_cntrl0.sequencer: Cache miss at [0x4faa748, line 0x4faa740]
351481800000: system.ruby.cp_cntrl0.sequencer: Cache miss at [0x4faa748, line 0x4faa740]
351481802000: system.ruby.cp_cntrl0.sequencer: Cache miss at [0x4faa740, line 0x4faa740]
351481804000: system.ruby.cp_cntrl0.sequencer: Cache miss at [0x38b08, line 0x38b00]
351481806000: system.ruby.cp_cntrl0.sequencer: Cache miss at [0xfaa3f0, line 0xfaa3c0]
351481808000: system.ruby.cp_cntrl0.sequencer: Cache miss at [0xfaa3f0, line 0xfaa3c0]
351481810000: system.ruby.cp_cntrl0.sequencer: Cache miss at [0xfaa3f8, line 0xfaa3c0]
351481812000: system.ruby.cp_cntrl0.sequencer: Cache miss at [0xf90c20, line 0xf90c00]
351481814000: system.ruby.cp_cntrl0.sequencer: Cache miss at [0xc62610, line 0xc62600]
351481816000: system.ruby.cp_cntrl0.sequencer: Cache miss at [0x23a9710, line 0x23a9700]
351481818000: system.ruby.cp_cntrl0.sequencer: Cache miss at [0x23a9710, line 0x23a9700]
351481820000: system.ruby.cp_cntrl0.sequencer: Cache miss at [0x23a9718, line 0x23a9700]
351481822000: system.ruby.cp_cntrl0.sequencer: Cache miss at [0x23a9718, line 0x23a9700]
351481824000: system.ruby.cp_cntrl0.sequencer: Cache miss at [0x23a9718, line 0x23a9700]
351481826000: system.ruby.cp_cntrl0.sequencer: Cache miss at [0x23a9720, line 0x23a9700]
351481828000: system.ruby.cp_cntrl0.sequencer: Cache miss at [0x23a9720, line 0x23a9700]
351481830000: system.ruby.cp_cntrl0.sequencer: Cache miss at [0x23a9720, line 0x23a9700]
351481832000: system.ruby.cp_cntrl0.sequencer: Cache miss at [0x38b08, line 0x38b00]
351481834000: system.ruby.cp_cntrl0.sequencer: Cache miss at [0x4faa740, line 0x4faa740]
351481836000: system.ruby.cp_cntrl0.sequencer: Cache miss at [0x10cf0b8, line 0x10cf080]
351481838000: system.ruby.cp_cntrl0.sequencer: Cache miss at [0x4faa748, line 0x4faa740]
351481840000: system.ruby.cp_cntrl0.sequencer: Cache miss at [0x4faa748, line 0x4faa740]
351481842000: system.ruby.cp_cntrl0.sequencer: Cache miss at [0x4faa740, line 0x4faa740]
351481844000: system.ruby.cp_cntrl0.sequencer: Cache miss at [0x38b08, line 0x38b00]
351481846000: system.ruby.cp_cntrl0.sequencer: Cache miss at [0xfaa3f0, line 0xfaa3c0]
351481848000: system.ruby.cp_cntrl0.sequencer: Cache miss at [0xfaa3f0, line 0xfaa3c0]
351481850000: system.ruby.cp_cntrl0.sequencer: Cache miss at [0xfaa3f8, line 0xfaa3c0]
351481852000: system.ruby.cp_cntrl0.sequencer: Cache miss at [0xf90c20, line 0xf90c00]
351481854000: system.ruby.cp_cntrl0.sequencer: Cache miss at [0xc62610, line 0xc62600]
351481856000: system.ruby.cp_cntrl0.sequencer: Cache miss at [0x23a9710, line 0x23a9700]
351481858000: system.ruby.cp_cntrl0.sequencer: Cache miss at [0x23a9710, line 0x23a9700]
351481860000: system.ruby.cp_cntrl0.sequencer: Cache miss at [0x23a9718, line 0x23a9700]
351481862000: system.ruby.cp_cntrl0.sequencer: Cache miss at [0x23a9718, line 0x23a9700]
351481864000: system.ruby.cp_cntrl0.sequencer: Cache miss at [0x23a9718, line 0x23a9700]
351481866000: system.ruby.cp_cntrl0.sequencer: Cache miss at [0x23a9720, line 0x23a9700]
351481868000: system.ruby.cp_cntrl0.sequencer: Cache miss at [0x23a9720, line 0x23a9700]
351481870000: system.ruby.cp_cntrl0.sequencer: Cache miss at [0x23a9720, line 0x23a9700]
351481872000: system.ruby.cp_cntrl0.sequencer: Cache miss at [0x38b08, line 0x38b00]
351481874000: system.ruby.cp_cntrl0.sequencer: Cache miss at [0x4faa740, line 0x4faa740]
351481876000: system.ruby.cp_cntrl0.sequencer: Cache miss at [0x10cf0b8, line 0x10cf080]
351481878000: system.ruby.cp_cntrl0.sequencer: Cache miss at [0x4faa748, line 0x4faa740]
351481880000: system.ruby.cp_cntrl0.sequencer: Cache miss at [0x4faa748, line 0x4faa740]
351481882000: system.ruby.cp_cntrl0.sequencer: Cache miss at [0x4faa740, line 0x4faa740]
351481884000: system.ruby.cp_cntrl0.sequencer: Cache miss at [0x38b08, line 0x38b00]
351481886000: system.ruby.cp_cntrl0.sequencer: Cache miss at [0xfaa3f0, line 0xfaa3c0]
351481888000: system.ruby.cp_cntrl0.sequencer: Cache miss at [0xfaa3f0, line 0xfaa3c0]
351481890000: system.ruby.cp_cntrl0.sequencer: Cache miss at [0xfaa3f8, line 0xfaa3c0]
351481892000: system.ruby.cp_cntrl0.sequencer: Cache miss at [0xf90c20, line 0xf90c00]
351481894000: system.ruby.cp_cntrl0.sequencer: Cache miss at [0xc62610, line 0xc62600]
351481896000: system.ruby.cp_cntrl0.sequencer: Cache miss at [0x23a9710, line 0x23a9700]
351481898000: system.ruby.cp_cntrl0.sequencer: Cache miss at [0x23a9710, line 0x23a9700]
351481900000: system.ruby.cp_cntrl0.sequencer: Cache miss at [0x23a9718, line 0x23a9700]
351481902000: system.ruby.cp_cntrl0.sequencer: Cache miss at [0x23a9718, line 0x23a9700]
351481904000: system.ruby.cp_cntrl0.sequencer: Cache miss at [0x23a9718, line 0x23a9700]
351481906000: system.ruby.cp_cntrl0.sequencer: Cache miss at [0x23a9720, line 0x23a9700]
351481908000: system.ruby.cp_cntrl0.sequencer: Cache miss at [0x23a9720, line 0x23a9700]
351481910000: system.ruby.cp_cntrl0.sequencer: Cache miss at [0x23a9720, line 0x23a9700]
351481912000: system.ruby.cp_cntrl0.sequencer: Cache miss at [0x38b08, line 0x38b00]
351481914000: system.ruby.cp_cntrl0.sequencer: Cache miss at [0x4faa740, line 0x4faa740]
351481916000: system.ruby.cp_cntrl0.sequencer: Cache miss at [0x10cf0b8, line 0x10cf080]
351481918000: system.ruby.cp_cntrl0.sequencer: Cache miss at [0x4faa748, line 0x4faa740]
351481920000: system.ruby.cp_cntrl0.sequencer: Cache miss at [0x4faa748, line 0x4faa740]
351481922000: system.ruby.cp_cntrl0.sequencer: Cache miss at [0x4faa740, line 0x4faa740]
351481924000: system.ruby.dir_cntrl21.L3CacheMemory: profiledemandMiss 118351481924000: system.ruby.cp_cntrl0.sequencer: Cache miss at [0x38b08, line 0x38b00]
351481926000: system.ruby.cp_cntrl0.sequencer: Cache miss at [0xfaa3f0, line 0xfaa3c0]
351481928000: system.ruby.cp_cntrl0.sequencer: Cache miss at [0xfaa3f0, line 0xfaa3c0]
351481930000: system.ruby.cp_cntrl0.sequencer: Cache miss at [0xfaa3f8, line 0xfaa3c0]
351481932000: system.ruby.cp_cntrl0.sequencer: Cache miss at [0xf90c20, line 0xf90c00]
351481934000: system.ruby.cp_cntrl0.sequencer: Cache miss at [0xc62610, line 0xc62600]
351481936000: system.ruby.cp_cntrl0.sequencer: Cache miss at [0x23a9710, line 0x23a9700]
351481936230: system.ruby.sqc_cntrl0.sequencer: Cache hit at [0x601e000, line 0x601e000]
351481938000: system.ruby.cp_cntrl0.sequencer: Cache miss at [0x23a9710, line 0x23a9700]
351481940000: system.ruby.cp_cntrl0.sequencer: Cache miss at [0x23a9718, line 0x23a9700]
351481942000: system.ruby.cp_cntrl0.sequencer: Cache miss at [0x23a9718, line 0x23a9700]
351481944000: system.ruby.cp_cntrl0.sequencer: Cache miss at [0x23a9718, line 0x23a9700]
351481946000: system.ruby.cp_cntrl0.sequencer: Cache miss at [0x23a9720, line 0x23a9700]
351481948000: system.ruby.cp_cntrl0.sequencer: Cache miss at [0x23a9720, line 0x23a9700]
351481950000: system.ruby.cp_cntrl0.sequencer: Cache miss at [0x23a9720, line 0x23a9700]
351481952000: system.ruby.cp_cntrl0.sequencer: Cache miss at [0x38b08, line 0x38b00]
351481954000: system.ruby.cp_cntrl0.sequencer: Cache miss at [0x4faa740, line 0x4faa740]
351481956000: system.ruby.cp_cntrl0.sequencer: Cache miss at [0x10cf0b8, line 0x10cf080]
351481958000: system.ruby.cp_cntrl0.sequencer: Cache miss at [0x4faa748, line 0x4faa740]
351481960000: system.ruby.cp_cntrl0.sequencer: Cache miss at [0x4faa748, line 0x4faa740]
351481962000: system.ruby.cp_cntrl0.sequencer: Cache miss at [0x4faa740, line 0x4faa740]
351481964000: system.ruby.cp_cntrl0.sequencer: Cache miss at [0x38b08, line 0x38b00]
351481966000: system.ruby.cp_cntrl0.sequencer: Cache miss at [0xfaa3f0, line 0xfaa3c0]
351481968000: system.ruby.cp_cntrl0.sequencer: Cache miss at [0xfaa3f0, line 0xfaa3c0]
351481970000: system.ruby.cp_cntrl0.sequencer: Cache miss at [0xfaa3f8, line 0xfaa3c0]
351481972000: system.ruby.cp_cntrl0.sequencer: Cache miss at [0xf90c20, line 0xf90c00]
351481974000: system.ruby.cp_cntrl0.sequencer: Cache miss at [0xc62610, line 0xc62600]
351481976000: system.ruby.cp_cntrl0.sequencer: Cache miss at [0x23a9710, line 0x23a9700]
351481978000: system.ruby.cp_cntrl0.sequencer: Cache miss at [0x23a9710, line 0x23a9700]
351481980000: system.ruby.cp_cntrl0.sequencer: Cache miss at [0x23a9718, line 0x23a9700]
351481982000: system.ruby.cp_cntrl0.sequencer: Cache miss at [0x23a9718, line 0x23a9700]
351481984000: system.ruby.cp_cntrl0.sequencer: Cache miss at [0x23a9718, line 0x23a9700]
351481986000: system.ruby.cp_cntrl0.sequencer: Cache miss at [0x23a9720, line 0x23a9700]
351481988000: system.ruby.cp_cntrl0.sequencer: Cache miss at [0x23a9720, line 0x23a9700]
351481989000: system.ruby.cp_cntrl1.sequencer: Cache hit at [0x10dbdf8, line 0x10dbdc0]
351481990000: system.ruby.cp_cntrl0.sequencer: Cache miss at [0x23a9720, line 0x23a9700]
351481991000: system.ruby.cp_cntrl1.sequencer: Cache miss at [0xc906f0, line 0xc906c0]
351481992000: system.ruby.cp_cntrl0.sequencer: Cache miss at [0x38b08, line 0x38b00]
351481993000: system.ruby.cp_cntrl1.sequencer: Cache miss at [0xc906f8, line 0xc906c0]
351481994000: system.ruby.cp_cntrl0.sequencer: Cache miss at [0x4faa740, line 0x4faa740]
351481995000: system.ruby.cp_cntrl1.sequencer: Cache miss at [0xc906f8, line 0xc906c0]
351481996000: system.ruby.cp_cntrl0.sequencer: Cache miss at [0x10cf0b8, line 0x10cf080]
351481997000: system.ruby.cp_cntrl1.sequencer: Cache miss at [0xc906f8, line 0xc906c0]
351481998000: system.ruby.cp_cntrl0.sequencer: Cache miss at [0x4faa748, line 0x4faa740]
351481999000: system.ruby.cp_cntrl1.sequencer: Cache miss at [0xc90700, line 0xc90700]
351482000000: system.ruby.cp_cntrl0.sequencer: Cache miss at [0x4faa748, line 0x4faa740]
351482001000: system.ruby.cp_cntrl1.sequencer: Cache miss at [0x53d78, line 0x53d40]
351482002000: system.ruby.cp_cntrl0.sequencer: Cache miss at [0x4faa740, line 0x4faa740]
351482003000: system.ruby.cp_cntrl1.sequencer: Cache miss at [0xc90700, line 0xc90700]
351482004000: system.ruby.cp_cntrl0.sequencer: Cache miss at [0x38b08, line 0x38b00]
351482005000: system.ruby.cp_cntrl1.sequencer: Cache miss at [0x239d5c0, line 0x239d5c0]
351482006000: system.ruby.cp_cntrl0.sequencer: Cache miss at [0xfaa3f0, line 0xfaa3c0]
351482007000: system.ruby.cp_cntrl1.sequencer: Cache miss at [0xc90708, line 0xc90700]
351482008000: system.ruby.cp_cntrl0.sequencer: Cache miss at [0xfaa3f0, line 0xfaa3c0]
351482009000: system.ruby.cp_cntrl1.sequencer: Cache miss at [0xc90708, line 0xc90700]
351482010000: system.ruby.cp_cntrl0.sequencer: Cache miss at [0xfaa3f8, line 0xfaa3c0]
351482011000: system.ruby.cp_cntrl1.sequencer: Cache miss at [0xc90710, line 0xc90700]
351482012000: system.ruby.cp_cntrl0.sequencer: Cache miss at [0xf90c20, line 0xf90c00]
351482013000: system.ruby.cp_cntrl1.sequencer: Cache miss at [0xc90710, line 0xc90700]
351482014000: system.ruby.cp_cntrl0.sequencer: Cache miss at [0xc62610, line 0xc62600]
351482015000: system.ruby.cp_cntrl1.sequencer: Cache miss at [0xc90710, line 0xc90700]
351482016000: system.ruby.cp_cntrl0.sequencer: Cache miss at [0x23a9710, line 0x23a9700]
351482017000: system.ruby.cp_cntrl1.sequencer: Cache miss at [0xc90718, line 0xc90700]
351482018000: system.ruby.cp_cntrl0.sequencer: Cache miss at [0x23a9710, line 0x23a9700]
351482019000: system.ruby.cp_cntrl1.sequencer: Cache miss at [0xc90720, line 0xc90700]
351482020000: system.ruby.cp_cntrl0.sequencer: Cache miss at [0x23a9718, line 0x23a9700]
351482021000: system.ruby.cp_cntrl1.sequencer: Cache miss at [0xc90720, line 0xc90700]
351482022000: system.ruby.cp_cntrl0.sequencer: Cache miss at [0x23a9718, line 0x23a9700]
351482023000: system.ruby.cp_cntrl1.sequencer: Cache miss at [0xc90728, line 0xc90700]
351482024000: system.ruby.cp_cntrl0.sequencer: Cache miss at [0x23a9718, line 0x23a9700]
351482025000: system.ruby.cp_cntrl1.sequencer: Cache miss at [0xc90728, line 0xc90700]
351482026000: system.ruby.cp_cntrl0.sequencer: Cache miss at [0x23a9720, line 0x23a9700]
351482027000: system.ruby.cp_cntrl1.sequencer: Cache miss at [0xca2840, line 0xca2840]
351482028000: system.ruby.cp_cntrl0.sequencer: Cache miss at [0x23a9720, line 0x23a9700]
351482029000: system.ruby.cp_cntrl1.sequencer: Cache miss at [0x239ec60, line 0x239ec40]
351482030000: system.ruby.cp_cntrl0.sequencer: Cache miss at [0x23a9720, line 0x23a9700]
351482031000: system.ruby.cp_cntrl1.sequencer: Cache miss at [0xca2840, line 0xca2840]
351482032000: system.ruby.cp_cntrl0.sequencer: Cache miss at [0x38b08, line 0x38b00]
351482033000: system.ruby.cp_cntrl1.sequencer: Cache miss at [0x239ec58, line 0x239ec40]
351482034000: system.ruby.cp_cntrl0.sequencer: Cache miss at [0x4faa740, line 0x4faa740]
351482035000: system.ruby.cp_cntrl1.sequencer: Cache miss at [0xca2840, line 0xca2840]
351482036000: system.ruby.cp_cntrl0.sequencer: Cache miss at [0x10cf0b8, line 0x10cf080]
351482037000: system.ruby.cp_cntrl1.sequencer: Cache miss at [0x239ec50, line 0x239ec40]
351482038000: system.ruby.cp_cntrl0.sequencer: Cache miss at [0x4faa748, line 0x4faa740]
351482039000: system.ruby.cp_cntrl1.sequencer: Cache miss at [0xca2840, line 0xca2840]
351482040000: system.ruby.cp_cntrl0.sequencer: Cache miss at [0x4faa748, line 0x4faa740]
351482041000: system.ruby.cp_cntrl1.sequencer: Cache miss at [0xca2848, line 0xca2840]
351482042000: system.ruby.cp_cntrl0.sequencer: Cache miss at [0x4faa740, line 0x4faa740]
351482043000: system.ruby.cp_cntrl1.sequencer: Cache miss at [0xca2848, line 0xca2840]
351482044000: system.ruby.cp_cntrl0.sequencer: Cache miss at [0x38b08, line 0x38b00]
351482045000: system.ruby.cp_cntrl1.sequencer: Cache miss at [0x239ec48, line 0x239ec40]
351482046000: system.ruby.cp_cntrl0.sequencer: Cache miss at [0xfaa3f0, line 0xfaa3c0]
351482047000: system.ruby.cp_cntrl1.sequencer: Cache miss at [0xca2848, line 0xca2840]
351482048000: system.ruby.cp_cntrl0.sequencer: Cache miss at [0xfaa3f0, line 0xfaa3c0]
351482049000: system.ruby.cp_cntrl1.sequencer: Cache miss at [0x239ec40, line 0x239ec40]
351482050000: system.ruby.cp_cntrl0.sequencer: Cache miss at [0xfaa3f8, line 0xfaa3c0]
351482051000: system.ruby.cp_cntrl1.sequencer: Cache miss at [0xca2848, line 0xca2840]
351482052000: system.ruby.cp_cntrl0.sequencer: Cache miss at [0xf90c20, line 0xf90c00]
351482053000: system.ruby.cp_cntrl1.sequencer: Cache miss at [0x239ec38, line 0x239ec00]
351482054000: system.ruby.cp_cntrl0.sequencer: Cache miss at [0xc62610, line 0xc62600]
351482055000: system.ruby.cp_cntrl1.sequencer: Cache miss at [0xca2848, line 0xca2840]
351482056000: system.ruby.cp_cntrl0.sequencer: Cache miss at [0x23a9710, line 0x23a9700]
351482057000: system.ruby.cp_cntrl1.sequencer: Cache miss at [0xca2850, line 0xca2840]
351482058000: system.ruby.cp_cntrl0.sequencer: Cache miss at [0x23a9710, line 0x23a9700]
351482059000: system.ruby.cp_cntrl1.sequencer: Cache miss at [0xca2850, line 0xca2840]
351482060000: system.ruby.cp_cntrl0.sequencer: Cache miss at [0x23a9718, line 0x23a9700]
351482061000: system.ruby.cp_cntrl1.sequencer: Cache miss at [0xca2858, line 0xca2840]
351482062000: system.ruby.cp_cntrl0.sequencer: Cache miss at [0x23a9718, line 0x23a9700]
351482063000: system.ruby.cp_cntrl1.sequencer: Cache miss at [0x239d728, line 0x239d700]
351482064000: system.ruby.cp_cntrl0.sequencer: Cache miss at [0x23a9718, line 0x23a9700]
351482065000: system.ruby.cp_cntrl1.sequencer: Cache miss at [0xca2858, line 0xca2840]
351482066000: system.ruby.cp_cntrl0.sequencer: Cache miss at [0x23a9720, line 0x23a9700]
351482067000: system.ruby.cp_cntrl1.sequencer: Cache miss at [0x239ec28, line 0x239ec00]
351482068000: system.ruby.cp_cntrl0.sequencer: Cache miss at [0x23a9720, line 0x23a9700]
351482069000: system.ruby.cp_cntrl1.sequencer: Cache miss at [0xca2858, line 0xca2840]
351482070000: system.ruby.cp_cntrl0.sequencer: Cache miss at [0x23a9720, line 0x23a9700]
351482071000: system.ruby.cp_cntrl1.sequencer: Cache miss at [0xca2860, line 0xca2840]
351482072000: system.ruby.cp_cntrl0.sequencer: Cache miss at [0x38b08, line 0x38b00]
351482073000: system.ruby.cp_cntrl1.sequencer: Cache miss at [0xca2860, line 0xca2840]
351482074000: system.ruby.cp_cntrl0.sequencer: Cache miss at [0x4faa740, line 0x4faa740]
351482075000: system.ruby.cp_cntrl1.sequencer: Cache miss at [0x10dbdf8, line 0x10dbdc0]
351482076000: system.ruby.cp_cntrl0.sequencer: Cache miss at [0x10cf0b8, line 0x10cf080]
351482077000: system.ruby.cp_cntrl1.sequencer: Cache miss at [0xca2860, line 0xca2840]
351482078000: system.ruby.cp_cntrl0.sequencer: Cache miss at [0x4faa748, line 0x4faa740]
351482079000: system.ruby.cp_cntrl1.sequencer: Cache miss at [0xca2868, line 0xca2840]
351482080000: system.ruby.cp_cntrl0.sequencer: Cache miss at [0x4faa748, line 0x4faa740]
351482081000: system.ruby.cp_cntrl1.sequencer: Cache miss at [0xca2868, line 0xca2840]
351482082000: system.ruby.cp_cntrl0.sequencer: Cache miss at [0x4faa740, line 0x4faa740]
351482083000: system.ruby.cp_cntrl1.sequencer: Cache miss at [0xca2868, line 0xca2840]
351482084000: system.ruby.cp_cntrl0.sequencer: Cache miss at [0x38b08, line 0x38b00]
351482085000: system.ruby.cp_cntrl1.sequencer: Cache miss at [0xca2870, line 0xca2840]
351482086000: system.ruby.cp_cntrl0.sequencer: Cache miss at [0xfaa3f0, line 0xfaa3c0]
351482087000: system.ruby.cp_cntrl1.sequencer: Cache miss at [0xca2870, line 0xca2840]
351482088000: system.ruby.cp_cntrl0.sequencer: Cache miss at [0xfaa3f0, line 0xfaa3c0]
351482089000: system.ruby.cp_cntrl1.sequencer: Cache miss at [0xca2870, line 0xca2840]
351482090000: system.ruby.cp_cntrl0.sequencer: Cache miss at [0xfaa3f8, line 0xfaa3c0]
351482091000: system.ruby.cp_cntrl1.sequencer: Cache miss at [0xca2878, line 0xca2840]
351482092000: system.ruby.cp_cntrl0.sequencer: Cache miss at [0xf90c20, line 0xf90c00]
351482093000: system.ruby.cp_cntrl1.sequencer: Cache miss at [0xca2878, line 0xca2840]
351482094000: system.ruby.cp_cntrl0.sequencer: Cache miss at [0xc62610, line 0xc62600]
351482095000: system.ruby.cp_cntrl1.sequencer: Cache miss at [0xca2878, line 0xca2840]
351482096000: system.ruby.cp_cntrl0.sequencer: Cache miss at [0x23a9710, line 0x23a9700]
351482097000: system.ruby.cp_cntrl1.L1Icache: profiledemandMiss 246351482098000: system.ruby.cp_cntrl0.sequencer: Cache miss at [0x23a9710, line 0x23a9700]
351482100000: system.ruby.cp_cntrl0.sequencer: Cache miss at [0x23a9718, line 0x23a9700]
351482102000: system.ruby.cp_cntrl0.sequencer: Cache miss at [0x23a9718, line 0x23a9700]
351482104000: system.ruby.cp_cntrl0.sequencer: Cache miss at [0x23a9718, line 0x23a9700]
351482106000: system.ruby.cp_cntrl0.sequencer: Cache miss at [0x23a9720, line 0x23a9700]
351482108000: system.ruby.cp_cntrl0.sequencer: Cache miss at [0x23a9720, line 0x23a9700]
351482110000: system.ruby.cp_cntrl0.sequencer: Cache miss at [0x23a9720, line 0x23a9700]
351482112000: system.ruby.cp_cntrl0.sequencer: Cache miss at [0x38b08, line 0x38b00]
351482114000: system.ruby.cp_cntrl0.sequencer: Cache miss at [0x4faa740, line 0x4faa740]
351482115000: system.ruby.cp_cntrl1.sequencer: Cache miss at [0xca2880, line 0xca2880]
351482116000: system.ruby.cp_cntrl0.sequencer: Cache miss at [0x10cf0b8, line 0x10cf080]
351482117000: system.ruby.cp_cntrl1.sequencer: Cache miss at [0xca2880, line 0xca2880]
351482118000: system.ruby.cp_cntrl0.sequencer: Cache miss at [0x4faa748, line 0x4faa740]
351482119000: system.ruby.cp_cntrl1.sequencer: Cache miss at [0xca2888, line 0xca2880]
351482120000: system.ruby.cp_cntrl0.sequencer: Cache miss at [0x4faa748, line 0x4faa740]
351482121000: system.ruby.cp_cntrl1.sequencer: Cache miss at [0xca2888, line 0xca2880]
351482122000: system.ruby.cp_cntrl0.sequencer: Cache miss at [0x4faa740, line 0x4faa740]
351482123000: system.ruby.cp_cntrl1.sequencer: Cache miss at [0xca2890, line 0xca2880]
351482124000: system.ruby.cp_cntrl0.sequencer: Cache miss at [0x38b08, line 0x38b00]
351482125000: system.ruby.cp_cntrl1.sequencer: Cache miss at [0xca2890, line 0xca2880]
351482126000: system.ruby.cp_cntrl0.sequencer: Cache miss at [0xfaa3f0, line 0xfaa3c0]
351482127000: system.ruby.cp_cntrl1.sequencer: Cache miss at [0xca2890, line 0xca2880]
351482128000: system.ruby.cp_cntrl0.sequencer: Cache miss at [0xfaa3f0, line 0xfaa3c0]
351482129000: system.ruby.cp_cntrl1.sequencer: Cache miss at [0xca2898, line 0xca2880]
351482130000: system.ruby.cp_cntrl0.sequencer: Cache miss at [0xfaa3f8, line 0xfaa3c0]
351482131000: system.ruby.cp_cntrl1.sequencer: Cache miss at [0xca2898, line 0xca2880]
351482132000: system.ruby.cp_cntrl0.sequencer: Cache miss at [0xf90c20, line 0xf90c00]
351482133000: system.ruby.cp_cntrl1.sequencer: Cache miss at [0xca28a0, line 0xca2880]
351482134000: system.ruby.cp_cntrl0.sequencer: Cache miss at [0xc62610, line 0xc62600]
351482135000: system.ruby.cp_cntrl1.sequencer: Cache miss at [0x53d78, line 0x53d40]
351482136000: system.ruby.cp_cntrl0.sequencer: Cache miss at [0x23a9710, line 0x23a9700]
351482137000: system.ruby.cp_cntrl1.sequencer: Cache miss at [0xca28a0, line 0xca2880]
351482138000: system.ruby.cp_cntrl0.sequencer: Cache miss at [0x23a9710, line 0x23a9700]
351482139000: system.ruby.cp_cntrl1.sequencer: Cache miss at [0xca28a0, line 0xca2880]
351482140000: system.ruby.cp_cntrl0.sequencer: Cache miss at [0x23a9718, line 0x23a9700]
351482141000: system.ruby.cp_cntrl1.sequencer: Cache miss at [0x239d5c0, line 0x239d5c0]
351482142000: system.ruby.cp_cntrl0.sequencer: Cache miss at [0x23a9718, line 0x23a9700]
351482143000: system.ruby.cp_cntrl1.sequencer: Cache miss at [0xca28a8, line 0xca2880]
351482144000: system.ruby.cp_cntrl0.sequencer: Cache miss at [0x23a9718, line 0x23a9700]
351482145000: system.ruby.cp_cntrl1.sequencer: Cache miss at [0xca28a8, line 0xca2880]
351482146000: system.ruby.cp_cntrl0.sequencer: Cache miss at [0x23a9720, line 0x23a9700]
351482147000: system.ruby.cp_cntrl1.sequencer: Cache miss at [0xca28a8, line 0xca2880]
351482148000: system.ruby.cp_cntrl0.sequencer: Cache miss at [0x23a9720, line 0x23a9700]
351482149000: system.ruby.cp_cntrl1.sequencer: Cache miss at [0xca28b0, line 0xca2880]
351482150000: system.ruby.cp_cntrl0.sequencer: Cache miss at [0x23a9720, line 0x23a9700]
351482151000: system.ruby.cp_cntrl1.sequencer: Cache miss at [0xca28b0, line 0xca2880]
351482152000: system.ruby.cp_cntrl0.sequencer: Cache miss at [0x38b08, line 0x38b00]
351482153000: system.ruby.cp_cntrl1.sequencer: Cache miss at [0xca28b0, line 0xca2880]
351482154000: system.ruby.cp_cntrl0.sequencer: Cache miss at [0x4faa740, line 0x4faa740]
351482155000: system.ruby.cp_cntrl1.sequencer: Cache miss at [0xca28b8, line 0xca2880]
351482156000: system.ruby.cp_cntrl0.sequencer: Cache miss at [0x10cf0b8, line 0x10cf080]
351482157000: system.ruby.cp_cntrl1.sequencer: Cache miss at [0x8f2d0, line 0x8f2c0]
351482158000: system.ruby.cp_cntrl0.sequencer: Cache miss at [0x4faa748, line 0x4faa740]
351482159000: system.ruby.cp_cntrl1.sequencer: Cache miss at [0xca28b8, line 0xca2880]
351482160000: system.ruby.cp_cntrl0.sequencer: Cache miss at [0x4faa748, line 0x4faa740]
351482161000: system.ruby.cp_cntrl1.sequencer: Cache miss at [0xca28b8, line 0xca2880]
351482162000: system.ruby.cp_cntrl0.sequencer: Cache miss at [0x4faa740, line 0x4faa740]
351482163000: system.ruby.cp_cntrl1.L1Icache: profiledemandMiss 247351482164000: system.ruby.cp_cntrl0.sequencer: Cache miss at [0x38b08, line 0x38b00]
351482166000: system.ruby.cp_cntrl0.sequencer: Cache miss at [0xfaa3f0, line 0xfaa3c0]
351482168000: system.ruby.cp_cntrl0.sequencer: Cache miss at [0xfaa3f0, line 0xfaa3c0]
351482170000: system.ruby.cp_cntrl0.sequencer: Cache miss at [0xfaa3f8, line 0xfaa3c0]
351482172000: system.ruby.cp_cntrl0.sequencer: Cache miss at [0xf90c20, line 0xf90c00]
351482174000: system.ruby.cp_cntrl0.sequencer: Cache miss at [0xc62610, line 0xc62600]
351482176000: system.ruby.cp_cntrl0.sequencer: Cache miss at [0x23a9710, line 0x23a9700]
351482178000: system.ruby.cp_cntrl0.sequencer: Cache miss at [0x23a9710, line 0x23a9700]
351482180000: system.ruby.cp_cntrl0.sequencer: Cache miss at [0x23a9718, line 0x23a9700]
351482181000: system.ruby.cp_cntrl1.sequencer: Cache miss at [0xca28c0, line 0xca28c0]
351482182000: system.ruby.cp_cntrl0.sequencer: Cache miss at [0x23a9718, line 0x23a9700]
351482183000: system.ruby.cp_cntrl1.sequencer: Cache miss at [0xca28c0, line 0xca28c0]
351482184000: system.ruby.cp_cntrl0.sequencer: Cache miss at [0x23a9718, line 0x23a9700]
351482185000: system.ruby.cp_cntrl1.sequencer: Cache miss at [0x10dbe08, line 0x10dbe00]
351482186000: system.ruby.cp_cntrl0.sequencer: Cache miss at [0x23a9720, line 0x23a9700]
351482187000: system.ruby.cp_cntrl1.sequencer: Cache miss at [0xca28c0, line 0xca28c0]
351482188000: system.ruby.cp_cntrl0.sequencer: Cache miss at [0x23a9720, line 0x23a9700]
351482189000: system.ruby.cp_cntrl1.sequencer: Cache miss at [0xca28c8, line 0xca28c0]
351482190000: system.ruby.cp_cntrl0.sequencer: Cache miss at [0x23a9720, line 0x23a9700]
351482191000: system.ruby.cp_cntrl1.sequencer: Cache miss at [0xca28c8, line 0xca28c0]
351482192000: system.ruby.cp_cntrl0.sequencer: Cache miss at [0x38b08, line 0x38b00]
351482193000: system.ruby.cp_cntrl1.sequencer: Cache miss at [0xca28d0, line 0xca28c0]
351482194000: system.ruby.cp_cntrl0.sequencer: Cache miss at [0x4faa740, line 0x4faa740]
351482195000: system.ruby.cp_cntrl1.sequencer: Cache miss at [0xca28d0, line 0xca28c0]
351482196000: system.ruby.cp_cntrl0.sequencer: Cache miss at [0x10cf0b8, line 0x10cf080]
351482197000: system.ruby.cp_cntrl1.L1D0cache: profiledemandMiss 278351482198000: system.ruby.cp_cntrl0.sequencer: Cache miss at [0x4faa748, line 0x4faa740]
351482200000: system.ruby.cp_cntrl0.sequencer: Cache miss at [0x4faa748, line 0x4faa740]
351482202000: system.ruby.cp_cntrl0.sequencer: Cache miss at [0x4faa740, line 0x4faa740]
351482204000: system.ruby.cp_cntrl0.sequencer: Cache miss at [0x38b08, line 0x38b00]
351482206000: system.ruby.cp_cntrl0.sequencer: Cache miss at [0xfaa3f0, line 0xfaa3c0]
351482208000: system.ruby.cp_cntrl0.sequencer: Cache miss at [0xfaa3f0, line 0xfaa3c0]
351482210000: system.ruby.cp_cntrl0.sequencer: Cache miss at [0xfaa3f8, line 0xfaa3c0]
351482212000: system.ruby.cp_cntrl0.sequencer: Cache miss at [0xf90c20, line 0xf90c00]
351482214000: system.ruby.cp_cntrl0.sequencer: Cache miss at [0xc62610, line 0xc62600]
351482215000: system.ruby.cp_cntrl1.sequencer: Cache miss at [0x23998d4, line 0x23998c0]
351482216000: system.ruby.cp_cntrl0.sequencer: Cache miss at [0x23a9710, line 0x23a9700]
351482217000: system.ruby.cp_cntrl1.sequencer: Cache miss at [0xca28d0, line 0xca28c0]
351482218000: system.ruby.cp_cntrl0.sequencer: Cache miss at [0x23a9710, line 0x23a9700]
351482219000: system.ruby.cp_cntrl1.sequencer: Cache miss at [0xca28d8, line 0xca28c0]
351482220000: system.ruby.cp_cntrl0.sequencer: Cache miss at [0x23a9718, line 0x23a9700]
351482221000: system.ruby.cp_cntrl1.sequencer: Cache miss at [0x8f2e0, line 0x8f2c0]
351482222000: system.ruby.cp_cntrl0.sequencer: Cache miss at [0x23a9718, line 0x23a9700]
351482223000: system.ruby.cp_cntrl1.sequencer: Cache miss at [0xca28d8, line 0xca28c0]
351482224000: system.ruby.cp_cntrl0.sequencer: Cache miss at [0x23a9718, line 0x23a9700]
351482225000: system.ruby.cp_cntrl1.sequencer: Cache miss at [0xca28d8, line 0xca28c0]
351482226000: system.ruby.cp_cntrl0.sequencer: Cache miss at [0x23a9720, line 0x23a9700]
351482227000: system.ruby.cp_cntrl1.sequencer: Cache miss at [0xca28e0, line 0xca28c0]
351482228000: system.ruby.cp_cntrl0.sequencer: Cache miss at [0x23a9720, line 0x23a9700]
351482229000: system.ruby.cp_cntrl1.sequencer: Cache miss at [0xca2af8, line 0xca2ac0]
351482230000: system.ruby.cp_cntrl0.sequencer: Cache miss at [0x23a9720, line 0x23a9700]
351482231000: system.ruby.cp_cntrl1.sequencer: Cache miss at [0xca2af8, line 0xca2ac0]
351482232000: system.ruby.cp_cntrl0.sequencer: Cache miss at [0x38b08, line 0x38b00]
351482233000: system.ruby.cp_cntrl1.sequencer: Cache miss at [0xca2b00, line 0xca2b00]
351482234000: system.ruby.cp_cntrl0.sequencer: Cache miss at [0x4faa740, line 0x4faa740]
351482235000: system.ruby.cp_cntrl1.L2cache: profiledemandMiss 517351482235000: system.ruby.cp_cntrl1.L1D0cache: profiledemandMiss 279351482236000: system.ruby.cp_cntrl0.sequencer: Cache miss at [0x10cf0b8, line 0x10cf080]
351482238000: system.ruby.cp_cntrl0.sequencer: Cache miss at [0x4faa748, line 0x4faa740]
351482240000: system.ruby.cp_cntrl0.sequencer: Cache miss at [0x4faa748, line 0x4faa740]
351482242000: system.ruby.cp_cntrl0.sequencer: Cache miss at [0x4faa740, line 0x4faa740]
351482244000: system.ruby.cp_cntrl0.sequencer: Cache miss at [0x38b08, line 0x38b00]
351482246000: system.ruby.cp_cntrl0.sequencer: Cache miss at [0xfaa3f0, line 0xfaa3c0]
351482248000: system.ruby.cp_cntrl0.sequencer: Cache miss at [0xfaa3f0, line 0xfaa3c0]
351482250000: system.ruby.cp_cntrl0.sequencer: Cache miss at [0xfaa3f8, line 0xfaa3c0]
351482252000: system.ruby.cp_cntrl0.sequencer: Cache miss at [0xf90c20, line 0xf90c00]
351482254000: system.ruby.cp_cntrl0.sequencer: Cache miss at [0xc62610, line 0xc62600]
351482256000: system.ruby.cp_cntrl0.sequencer: Cache miss at [0x23a9710, line 0x23a9700]
351482258000: system.ruby.cp_cntrl0.sequencer: Cache miss at [0x23a9710, line 0x23a9700]
351482260000: system.ruby.cp_cntrl0.sequencer: Cache miss at [0x23a9718, line 0x23a9700]
351482262000: system.ruby.cp_cntrl0.sequencer: Cache miss at [0x23a9718, line 0x23a9700]
351482264000: system.ruby.cp_cntrl0.sequencer: Cache miss at [0x23a9718, line 0x23a9700]
351482266000: system.ruby.cp_cntrl0.sequencer: Cache miss at [0x23a9720, line 0x23a9700]
351482268000: system.ruby.cp_cntrl0.sequencer: Cache miss at [0x23a9720, line 0x23a9700]
351482270000: system.ruby.cp_cntrl0.sequencer: Cache miss at [0x23a9720, line 0x23a9700]
351482272000: system.ruby.cp_cntrl0.sequencer: Cache miss at [0x38b08, line 0x38b00]
351482274000: system.ruby.cp_cntrl0.sequencer: Cache miss at [0x4faa740, line 0x4faa740]
351482276000: system.ruby.cp_cntrl0.sequencer: Cache miss at [0x10cf0b8, line 0x10cf080]
351482278000: system.ruby.cp_cntrl0.sequencer: Cache miss at [0x4faa748, line 0x4faa740]
351482280000: system.ruby.cp_cntrl0.sequencer: Cache miss at [0x4faa748, line 0x4faa740]
351482282000: system.ruby.cp_cntrl0.sequencer: Cache miss at [0x4faa740, line 0x4faa740]
351482284000: system.ruby.cp_cntrl0.sequencer: Cache miss at [0x38b08, line 0x38b00]
351482286000: system.ruby.cp_cntrl0.sequencer: Cache miss at [0xfaa3f0, line 0xfaa3c0]
351482288000: system.ruby.cp_cntrl0.sequencer: Cache miss at [0xfaa3f0, line 0xfaa3c0]
351482290000: system.ruby.cp_cntrl0.sequencer: Cache miss at [0xfaa3f8, line 0xfaa3c0]
351482292000: system.ruby.cp_cntrl0.sequencer: Cache miss at [0xf90c20, line 0xf90c00]
351482294000: system.ruby.cp_cntrl0.sequencer: Cache miss at [0xc62610, line 0xc62600]
351482296000: system.ruby.cp_cntrl0.sequencer: Cache miss at [0x23a9710, line 0x23a9700]
351482298000: system.ruby.cp_cntrl0.sequencer: Cache miss at [0x23a9710, line 0x23a9700]
351482300000: system.ruby.cp_cntrl0.sequencer: Cache miss at [0x23a9718, line 0x23a9700]
351482302000: system.ruby.cp_cntrl0.sequencer: Cache miss at [0x23a9718, line 0x23a9700]
351482304000: system.ruby.cp_cntrl0.sequencer: Cache miss at [0x23a9718, line 0x23a9700]
351482306000: system.ruby.cp_cntrl0.sequencer: Cache miss at [0x23a9720, line 0x23a9700]
351482308000: system.ruby.cp_cntrl0.sequencer: Cache miss at [0x23a9720, line 0x23a9700]
351482310000: system.ruby.cp_cntrl0.sequencer: Cache miss at [0x23a9720, line 0x23a9700]
351482312000: system.ruby.cp_cntrl0.sequencer: Cache miss at [0x38b08, line 0x38b00]
351482314000: system.ruby.cp_cntrl0.sequencer: Cache miss at [0x4faa740, line 0x4faa740]
351482316000: system.ruby.cp_cntrl0.sequencer: Cache miss at [0x10cf0b8, line 0x10cf080]
351482318000: system.ruby.cp_cntrl0.sequencer: Cache miss at [0x4faa748, line 0x4faa740]
351482320000: system.ruby.cp_cntrl0.sequencer: Cache miss at [0x4faa748, line 0x4faa740]
351482322000: system.ruby.cp_cntrl0.sequencer: Cache miss at [0x4faa740, line 0x4faa740]
351482324000: system.ruby.cp_cntrl0.sequencer: Cache miss at [0x38b08, line 0x38b00]
351482326000: system.ruby.cp_cntrl0.sequencer: Cache miss at [0xfaa3f0, line 0xfaa3c0]
351482328000: system.ruby.cp_cntrl0.sequencer: Cache miss at [0xfaa3f0, line 0xfaa3c0]
351482330000: system.ruby.cp_cntrl0.sequencer: Cache miss at [0xfaa3f8, line 0xfaa3c0]
351482332000: system.ruby.cp_cntrl0.sequencer: Cache miss at [0xf90c20, line 0xf90c00]
351482334000: system.ruby.cp_cntrl0.sequencer: Cache miss at [0xc62610, line 0xc62600]
351482336000: system.ruby.cp_cntrl0.sequencer: Cache miss at [0x23a9710, line 0x23a9700]
351482338000: system.ruby.cp_cntrl0.sequencer: Cache miss at [0x23a9710, line 0x23a9700]
351482340000: system.ruby.cp_cntrl0.sequencer: Cache miss at [0x23a9718, line 0x23a9700]
351482342000: system.ruby.cp_cntrl0.sequencer: Cache miss at [0x23a9718, line 0x23a9700]
351482344000: system.ruby.cp_cntrl0.sequencer: Cache miss at [0x23a9718, line 0x23a9700]
351482346000: system.ruby.cp_cntrl0.sequencer: Cache miss at [0x23a9720, line 0x23a9700]
351482348000: system.ruby.cp_cntrl0.sequencer: Cache miss at [0x23a9720, line 0x23a9700]
351482350000: system.ruby.cp_cntrl0.sequencer: Cache miss at [0x23a9720, line 0x23a9700]
351482352000: system.ruby.cp_cntrl0.sequencer: Cache miss at [0x38b08, line 0x38b00]
351482354000: system.ruby.cp_cntrl0.sequencer: Cache miss at [0x4faa740, line 0x4faa740]
351482356000: system.ruby.cp_cntrl0.sequencer: Cache miss at [0x10cf0b8, line 0x10cf080]
351482358000: system.ruby.cp_cntrl0.sequencer: Cache miss at [0x4faa748, line 0x4faa740]
351482359000: system.ruby.dir_cntrl40.L3CacheMemory: profiledemandMiss 121351482360000: system.ruby.cp_cntrl0.sequencer: Cache miss at [0x4faa748, line 0x4faa740]
351482362000: system.ruby.cp_cntrl0.sequencer: Cache miss at [0x4faa740, line 0x4faa740]
351482364000: system.ruby.cp_cntrl0.sequencer: Cache miss at [0x38b08, line 0x38b00]
351482366000: system.ruby.cp_cntrl0.sequencer: Cache miss at [0xfaa3f0, line 0xfaa3c0]
351482368000: system.ruby.cp_cntrl0.sequencer: Cache miss at [0xfaa3f0, line 0xfaa3c0]
351482370000: system.ruby.cp_cntrl0.sequencer: Cache miss at [0xfaa3f8, line 0xfaa3c0]
351482372000: system.ruby.cp_cntrl0.sequencer: Cache miss at [0xf90c20, line 0xf90c00]
351482374000: system.ruby.cp_cntrl0.sequencer: Cache miss at [0xc62610, line 0xc62600]
351482376000: system.ruby.cp_cntrl0.sequencer: Cache miss at [0x23a9710, line 0x23a9700]
351482378000: system.ruby.cp_cntrl0.sequencer: Cache miss at [0x23a9710, line 0x23a9700]
351482380000: system.ruby.cp_cntrl0.sequencer: Cache miss at [0x23a9718, line 0x23a9700]
351482382000: system.ruby.cp_cntrl0.sequencer: Cache miss at [0x23a9718, line 0x23a9700]
351482384000: system.ruby.cp_cntrl0.sequencer: Cache miss at [0x23a9718, line 0x23a9700]
351482386000: system.ruby.cp_cntrl0.sequencer: Cache miss at [0x23a9720, line 0x23a9700]
351482388000: system.ruby.cp_cntrl0.sequencer: Cache miss at [0x23a9720, line 0x23a9700]
351482390000: system.ruby.cp_cntrl0.sequencer: Cache miss at [0x23a9720, line 0x23a9700]
351482392000: system.ruby.cp_cntrl0.sequencer: Cache miss at [0x38b08, line 0x38b00]
351482394000: system.ruby.cp_cntrl0.sequencer: Cache miss at [0x4faa740, line 0x4faa740]
351482396000: system.ruby.cp_cntrl0.sequencer: Cache miss at [0x10cf0b8, line 0x10cf080]
351482398000: system.ruby.cp_cntrl0.sequencer: Cache miss at [0x4faa748, line 0x4faa740]
351482400000: system.ruby.cp_cntrl0.sequencer: Cache miss at [0x4faa748, line 0x4faa740]
351482402000: system.ruby.cp_cntrl0.sequencer: Cache miss at [0x4faa740, line 0x4faa740]
351482404000: system.ruby.cp_cntrl0.sequencer: Cache miss at [0x38b08, line 0x38b00]
351482406000: system.ruby.cp_cntrl0.sequencer: Cache miss at [0xfaa3f0, line 0xfaa3c0]
351482408000: system.ruby.cp_cntrl0.sequencer: Cache miss at [0xfaa3f0, line 0xfaa3c0]
351482410000: system.ruby.cp_cntrl0.sequencer: Cache miss at [0xfaa3f8, line 0xfaa3c0]
351482412000: system.ruby.cp_cntrl0.sequencer: Cache miss at [0xf90c20, line 0xf90c00]
351482414000: system.ruby.cp_cntrl0.sequencer: Cache miss at [0xc62610, line 0xc62600]
351482416000: system.ruby.cp_cntrl0.sequencer: Cache miss at [0x23a9710, line 0x23a9700]
351482418000: system.ruby.cp_cntrl0.sequencer: Cache miss at [0x23a9710, line 0x23a9700]
351482420000: system.ruby.cp_cntrl0.sequencer: Cache miss at [0x23a9718, line 0x23a9700]
351482422000: system.ruby.cp_cntrl0.sequencer: Cache miss at [0x23a9718, line 0x23a9700]
351482424000: system.ruby.cp_cntrl0.sequencer: Cache miss at [0x23a9718, line 0x23a9700]
351482426000: system.ruby.cp_cntrl0.sequencer: Cache miss at [0x23a9720, line 0x23a9700]
351482428000: system.ruby.cp_cntrl0.sequencer: Cache miss at [0x23a9720, line 0x23a9700]
351482430000: system.ruby.cp_cntrl0.sequencer: Cache miss at [0x23a9720, line 0x23a9700]
351482432000: system.ruby.cp_cntrl0.sequencer: Cache miss at [0x38b08, line 0x38b00]
351482434000: system.ruby.cp_cntrl0.sequencer: Cache miss at [0x4faa740, line 0x4faa740]
351482436000: system.ruby.cp_cntrl0.sequencer: Cache miss at [0x10cf0b8, line 0x10cf080]
351482438000: system.ruby.cp_cntrl0.sequencer: Cache miss at [0x4faa748, line 0x4faa740]
351482440000: system.ruby.cp_cntrl0.sequencer: Cache miss at [0x4faa748, line 0x4faa740]
351482442000: system.ruby.cp_cntrl0.sequencer: Cache miss at [0x4faa740, line 0x4faa740]
351482444000: system.ruby.cp_cntrl0.sequencer: Cache miss at [0x38b08, line 0x38b00]
351482446000: system.ruby.cp_cntrl0.sequencer: Cache miss at [0xfaa3f0, line 0xfaa3c0]
351482448000: system.ruby.cp_cntrl0.sequencer: Cache miss at [0xfaa3f0, line 0xfaa3c0]
351482450000: system.ruby.cp_cntrl0.sequencer: Cache miss at [0xfaa3f8, line 0xfaa3c0]
351482452000: system.ruby.cp_cntrl0.sequencer: Cache miss at [0xf90c20, line 0xf90c00]
351482454000: system.ruby.cp_cntrl0.sequencer: Cache miss at [0xc62610, line 0xc62600]
351482456000: system.ruby.cp_cntrl0.sequencer: Cache miss at [0x23a9710, line 0x23a9700]
351482458000: system.ruby.cp_cntrl0.sequencer: Cache miss at [0x23a9710, line 0x23a9700]
351482460000: system.ruby.cp_cntrl0.sequencer: Cache miss at [0x23a9718, line 0x23a9700]
351482462000: system.ruby.cp_cntrl0.sequencer: Cache miss at [0x23a9718, line 0x23a9700]
351482464000: system.ruby.cp_cntrl0.sequencer: Cache miss at [0x23a9718, line 0x23a9700]
351482466000: system.ruby.cp_cntrl0.sequencer: Cache miss at [0x23a9720, line 0x23a9700]
351482468000: system.ruby.cp_cntrl0.sequencer: Cache miss at [0x23a9720, line 0x23a9700]
351482470000: system.ruby.cp_cntrl0.sequencer: Cache miss at [0x23a9720, line 0x23a9700]
351482472000: system.ruby.cp_cntrl0.sequencer: Cache miss at [0x38b08, line 0x38b00]
351482474000: system.ruby.cp_cntrl0.sequencer: Cache miss at [0x4faa740, line 0x4faa740]
351482476000: system.ruby.cp_cntrl0.sequencer: Cache miss at [0x10cf0b8, line 0x10cf080]
351482478000: system.ruby.cp_cntrl0.sequencer: Cache miss at [0x4faa748, line 0x4faa740]
351482480000: system.ruby.cp_cntrl0.sequencer: Cache miss at [0x4faa748, line 0x4faa740]
351482482000: system.ruby.cp_cntrl0.sequencer: Cache miss at [0x4faa740, line 0x4faa740]
351482484000: system.ruby.cp_cntrl0.sequencer: Cache miss at [0x38b08, line 0x38b00]
351482486000: system.ruby.cp_cntrl0.sequencer: Cache miss at [0xfaa3f0, line 0xfaa3c0]
351482488000: system.ruby.cp_cntrl0.sequencer: Cache miss at [0xfaa3f0, line 0xfaa3c0]
351482490000: system.ruby.cp_cntrl0.sequencer: Cache miss at [0xfaa3f8, line 0xfaa3c0]
351482492000: system.ruby.cp_cntrl0.sequencer: Cache miss at [0xf90c20, line 0xf90c00]
351482494000: system.ruby.cp_cntrl0.sequencer: Cache miss at [0xc62610, line 0xc62600]
351482496000: system.ruby.cp_cntrl0.sequencer: Cache miss at [0x23a9710, line 0x23a9700]
351482496225: system.ruby.scalar_cntrl0: GPU_VIPER-SQC.sm:330: in SQC uu_profileDataMiss
351482496225: system.ruby.scalar_cntrl0.L1cache: profiledemandMiss 3351482498000: system.ruby.cp_cntrl0.sequencer: Cache miss at [0x23a9710, line 0x23a9700]
351482500000: system.ruby.cp_cntrl0.sequencer: Cache miss at [0x23a9718, line 0x23a9700]
351482502000: system.ruby.cp_cntrl0.sequencer: Cache miss at [0x23a9718, line 0x23a9700]
351482504000: system.ruby.cp_cntrl0.sequencer: Cache miss at [0x23a9718, line 0x23a9700]
351482506000: system.ruby.cp_cntrl0.sequencer: Cache miss at [0x23a9720, line 0x23a9700]
351482508000: system.ruby.cp_cntrl0.sequencer: Cache miss at [0x23a9720, line 0x23a9700]
351482510000: system.ruby.cp_cntrl0.sequencer: Cache miss at [0x23a9720, line 0x23a9700]
351482512000: system.ruby.cp_cntrl0.sequencer: Cache miss at [0x38b08, line 0x38b00]
351482514000: system.ruby.cp_cntrl0.sequencer: Cache miss at [0x4faa740, line 0x4faa740]
351482516000: system.ruby.cp_cntrl0.sequencer: Cache miss at [0x10cf0b8, line 0x10cf080]
351482518000: system.ruby.cp_cntrl0.sequencer: Cache miss at [0x4faa748, line 0x4faa740]
351482520000: system.ruby.cp_cntrl0.sequencer: Cache miss at [0x4faa748, line 0x4faa740]
351482522000: system.ruby.cp_cntrl0.sequencer: Cache miss at [0x4faa740, line 0x4faa740]
351482524000: system.ruby.cp_cntrl0.sequencer: Cache miss at [0x38b08, line 0x38b00]
351482526000: system.ruby.cp_cntrl0.sequencer: Cache miss at [0xfaa3f0, line 0xfaa3c0]
351482528000: system.ruby.cp_cntrl0.sequencer: Cache miss at [0xfaa3f0, line 0xfaa3c0]
351482530000: system.ruby.cp_cntrl0.sequencer: Cache miss at [0xfaa3f8, line 0xfaa3c0]
351482532000: system.ruby.cp_cntrl0.sequencer: Cache miss at [0xf90c20, line 0xf90c00]
351482534000: system.ruby.cp_cntrl0.sequencer: Cache miss at [0xc62610, line 0xc62600]
351482536000: system.ruby.cp_cntrl0.sequencer: Cache miss at [0x23a9710, line 0x23a9700]
351482538000: system.ruby.cp_cntrl0.sequencer: Cache miss at [0x23a9710, line 0x23a9700]
351482540000: system.ruby.cp_cntrl0.sequencer: Cache miss at [0x23a9718, line 0x23a9700]
351482542000: system.ruby.cp_cntrl0.sequencer: Cache miss at [0x23a9718, line 0x23a9700]
351482543400: system.ruby.tcc_cntrl0.L2cache: profiledemandMiss 38351482543400: system.ruby.tcc_cntrl0: GPU_VIPER-TCC.sm:639: in TCC Miss profile
351482544000: system.ruby.cp_cntrl0.sequencer: Cache miss at [0x23a9718, line 0x23a9700]
351482546000: system.ruby.cp_cntrl0.sequencer: Cache miss at [0x23a9720, line 0x23a9700]
351482548000: system.ruby.cp_cntrl0.sequencer: Cache miss at [0x23a9720, line 0x23a9700]
351482550000: system.ruby.cp_cntrl0.sequencer: Cache miss at [0x23a9720, line 0x23a9700]
351482552000: system.ruby.cp_cntrl1.sequencer: Cache hit at [0x10dbe08, line 0x10dbe00]
351482552000: system.ruby.cp_cntrl0.sequencer: Cache miss at [0x38b08, line 0x38b00]
351482554000: system.ruby.cp_cntrl0.sequencer: Cache miss at [0x4faa740, line 0x4faa740]
351482554000: system.ruby.cp_cntrl1.sequencer: Cache miss at [0xca2b00, line 0xca2b00]
351482556000: system.ruby.cp_cntrl1.sequencer: Cache miss at [0xca2b00, line 0xca2b00]
351482556000: system.ruby.cp_cntrl0.sequencer: Cache miss at [0x10cf0b8, line 0x10cf080]
351482558000: system.ruby.cp_cntrl0.sequencer: Cache miss at [0x4faa748, line 0x4faa740]
351482558000: system.ruby.cp_cntrl1.sequencer: Cache miss at [0xca2b08, line 0xca2b00]
351482560000: system.ruby.cp_cntrl1.sequencer: Cache miss at [0x2399960, line 0x2399940]
351482560000: system.ruby.cp_cntrl0.sequencer: Cache miss at [0x4faa748, line 0x4faa740]
351482562000: system.ruby.cp_cntrl0.sequencer: Cache miss at [0x4faa740, line 0x4faa740]
351482562000: system.ruby.cp_cntrl1.sequencer: Cache miss at [0xca2b08, line 0xca2b00]
351482564000: system.ruby.cp_cntrl1.sequencer: Cache miss at [0x10dbe00, line 0x10dbe00]
351482564000: system.ruby.cp_cntrl0.sequencer: Cache miss at [0x38b08, line 0x38b00]
351482566000: system.ruby.cp_cntrl0.sequencer: Cache miss at [0xfaa3f0, line 0xfaa3c0]
351482566000: system.ruby.cp_cntrl1.sequencer: Cache miss at [0xca2b10, line 0xca2b00]
351482568000: system.ruby.cp_cntrl1.sequencer: Cache miss at [0x2399960, line 0x2399940]
351482568000: system.ruby.cp_cntrl0.sequencer: Cache miss at [0xfaa3f0, line 0xfaa3c0]
351482570000: system.ruby.cp_cntrl0.sequencer: Cache miss at [0xfaa3f8, line 0xfaa3c0]
351482570000: system.ruby.cp_cntrl1.sequencer: Cache miss at [0xca2b10, line 0xca2b00]
351482572000: system.ruby.cp_cntrl1.sequencer: Cache miss at [0xca2b18, line 0xca2b00]
351482572000: system.ruby.cp_cntrl0.sequencer: Cache miss at [0xf90c20, line 0xf90c00]
351482574000: system.ruby.cp_cntrl0.sequencer: Cache miss at [0xc62610, line 0xc62600]
351482574000: system.ruby.cp_cntrl1.sequencer: Cache miss at [0x23998d4, line 0x23998c0]
351482576000: system.ruby.cp_cntrl1.sequencer: Cache miss at [0xca2b18, line 0xca2b00]
351482576000: system.ruby.cp_cntrl0.sequencer: Cache miss at [0x23a9710, line 0x23a9700]
351482578000: system.ruby.cp_cntrl0.sequencer: Cache miss at [0x23a9710, line 0x23a9700]
351482578000: system.ruby.cp_cntrl1.sequencer: Cache miss at [0xca2970, line 0xca2940]
351482580000: system.ruby.cp_cntrl1.sequencer: Cache miss at [0xca2978, line 0xca2940]
351482580000: system.ruby.cp_cntrl0.sequencer: Cache miss at [0x23a9718, line 0x23a9700]
351482582000: system.ruby.cp_cntrl0.sequencer: Cache miss at [0x23a9718, line 0x23a9700]
351482582000: system.ruby.cp_cntrl1.sequencer: Cache miss at [0x239ec28, line 0x239ec00]
351482584000: system.ruby.cp_cntrl1.sequencer: Cache miss at [0xca2978, line 0xca2940]
351482584000: system.ruby.cp_cntrl0.sequencer: Cache miss at [0x23a9718, line 0x23a9700]
351482586000: system.ruby.cp_cntrl0.sequencer: Cache miss at [0x23a9720, line 0x23a9700]
351482586000: system.ruby.cp_cntrl1.L1Icache: profiledemandMiss 248351482588000: system.ruby.cp_cntrl0.sequencer: Cache miss at [0x23a9720, line 0x23a9700]
351482590000: system.ruby.cp_cntrl0.sequencer: Cache miss at [0x23a9720, line 0x23a9700]
351482592000: system.ruby.cp_cntrl0.sequencer: Cache miss at [0x38b08, line 0x38b00]
351482594000: system.ruby.cp_cntrl0.sequencer: Cache miss at [0x4faa740, line 0x4faa740]
351482596000: system.ruby.cp_cntrl0.sequencer: Cache miss at [0x10cf0b8, line 0x10cf080]
351482598000: system.ruby.cp_cntrl0.sequencer: Cache miss at [0x4faa748, line 0x4faa740]
351482600000: system.ruby.cp_cntrl0.sequencer: Cache miss at [0x4faa748, line 0x4faa740]
351482602000: system.ruby.cp_cntrl0.sequencer: Cache miss at [0x4faa740, line 0x4faa740]
351482604000: system.ruby.cp_cntrl0.sequencer: Cache miss at [0x38b08, line 0x38b00]
351482604000: system.ruby.cp_cntrl1.sequencer: Cache miss at [0xca2980, line 0xca2980]
351482606000: system.ruby.cp_cntrl1.sequencer: Cache miss at [0x239d728, line 0x239d700]
351482606000: system.ruby.cp_cntrl0.sequencer: Cache miss at [0xfaa3f0, line 0xfaa3c0]
351482608000: system.ruby.cp_cntrl0.sequencer: Cache miss at [0xfaa3f0, line 0xfaa3c0]
351482608000: system.ruby.cp_cntrl1.sequencer: Cache miss at [0xca2980, line 0xca2980]
351482610000: system.ruby.cp_cntrl1.sequencer: Cache miss at [0xca2988, line 0xca2980]
351482610000: system.ruby.cp_cntrl0.sequencer: Cache miss at [0xfaa3f8, line 0xfaa3c0]
351482612000: system.ruby.cp_cntrl0.sequencer: Cache miss at [0xf90c20, line 0xf90c00]
351482612000: system.ruby.cp_cntrl1.sequencer: Cache miss at [0xca2988, line 0xca2980]
351482614000: system.ruby.dir_cntrl14.L3CacheMemory: profiledemandMiss 119351482614000: system.ruby.cp_cntrl1.sequencer: Cache miss at [0xca2988, line 0xca2980]
351482614000: system.ruby.cp_cntrl0.sequencer: Cache miss at [0xc62610, line 0xc62600]
351482616000: system.ruby.cp_cntrl0.sequencer: Cache miss at [0x23a9710, line 0x23a9700]
351482616000: system.ruby.cp_cntrl1.sequencer: Cache miss at [0x239ec38, line 0x239ec00]
351482618000: system.ruby.cp_cntrl1.sequencer: Cache miss at [0xca2988, line 0xca2980]
351482618000: system.ruby.cp_cntrl0.sequencer: Cache miss at [0x23a9710, line 0x23a9700]
351482620000: system.ruby.cp_cntrl0.sequencer: Cache miss at [0x23a9718, line 0x23a9700]
351482620000: system.ruby.cp_cntrl1.sequencer: Cache miss at [0x239ec40, line 0x239ec40]
351482622000: system.ruby.cp_cntrl1.sequencer: Cache miss at [0xca2988, line 0xca2980]
351482622000: system.ruby.cp_cntrl0.sequencer: Cache miss at [0x23a9718, line 0x23a9700]
351482624000: system.ruby.cp_cntrl0.sequencer: Cache miss at [0x23a9718, line 0x23a9700]
351482624000: system.ruby.cp_cntrl1.sequencer: Cache miss at [0xca2990, line 0xca2980]
351482626000: system.ruby.cp_cntrl1.sequencer: Cache miss at [0x239ec48, line 0x239ec40]
351482626000: system.ruby.cp_cntrl0.sequencer: Cache miss at [0x23a9720, line 0x23a9700]
351482628000: system.ruby.cp_cntrl0.sequencer: Cache miss at [0x23a9720, line 0x23a9700]
351482628000: system.ruby.cp_cntrl1.sequencer: Cache miss at [0xca2990, line 0xca2980]
351482630000: system.ruby.cp_cntrl1.sequencer: Cache miss at [0x239ec50, line 0x239ec40]
351482630000: system.ruby.cp_cntrl0.sequencer: Cache miss at [0x23a9720, line 0x23a9700]
351482632000: system.ruby.cp_cntrl0.sequencer: Cache miss at [0x38b08, line 0x38b00]
351482632000: system.ruby.cp_cntrl1.sequencer: Cache miss at [0xca2990, line 0xca2980]
351482634000: system.ruby.cp_cntrl1.sequencer: Cache miss at [0x239ec58, line 0x239ec40]
351482634000: system.ruby.cp_cntrl0.sequencer: Cache miss at [0x4faa740, line 0x4faa740]
351482636000: system.ruby.cp_cntrl0.sequencer: Cache miss at [0x10cf0b8, line 0x10cf080]
351482636000: system.ruby.cp_cntrl1.sequencer: Cache miss at [0xca2990, line 0xca2980]
351482638000: system.ruby.cp_cntrl1.sequencer: Cache miss at [0x239ec60, line 0x239ec40]
351482638000: system.ruby.cp_cntrl0.sequencer: Cache miss at [0x4faa748, line 0x4faa740]
351482640000: system.ruby.cp_cntrl0.sequencer: Cache miss at [0x4faa748, line 0x4faa740]
351482640000: system.ruby.cp_cntrl1.sequencer: Cache miss at [0xca2990, line 0xca2980]
351482642000: system.ruby.cp_cntrl1.sequencer: Cache miss at [0x239ec68, line 0x239ec40]
351482642000: system.ruby.cp_cntrl0.sequencer: Cache miss at [0x4faa740, line 0x4faa740]
351482644000: system.ruby.cp_cntrl0.sequencer: Cache miss at [0x38b08, line 0x38b00]
351482644000: system.ruby.cp_cntrl1.sequencer: Cache miss at [0x238dfd8, line 0x238dfc0]
351482646000: system.ruby.cp_cntrl1.sequencer: Cache miss at [0x238dfe0, line 0x238dfc0]
351482646000: system.ruby.cp_cntrl0.sequencer: Cache miss at [0xfaa3f0, line 0xfaa3c0]
351482648000: system.ruby.cp_cntrl0.sequencer: Cache miss at [0xfaa3f0, line 0xfaa3c0]
351482648000: system.ruby.cp_cntrl1.sequencer: Cache miss at [0x238dfe0, line 0x238dfc0]
351482650000: system.ruby.cp_cntrl1.sequencer: Cache miss at [0x238dfe0, line 0x238dfc0]
351482650000: system.ruby.cp_cntrl0.sequencer: Cache miss at [0xfaa3f8, line 0xfaa3c0]
351482652000: system.ruby.cp_cntrl0.sequencer: Cache miss at [0xf90c20, line 0xf90c00]
351482652000: system.ruby.cp_cntrl1.sequencer: Cache miss at [0x238dfe8, line 0x238dfc0]
351482654000: system.ruby.cp_cntrl1.sequencer: Cache miss at [0x238dfe8, line 0x238dfc0]
351482654000: system.ruby.cp_cntrl0.sequencer: Cache miss at [0xc62610, line 0xc62600]
351482656000: system.ruby.cp_cntrl0.sequencer: Cache miss at [0x23a9710, line 0x23a9700]
351482656000: system.ruby.cp_cntrl1.sequencer: Cache miss at [0x239ec68, line 0x239ec40]
351482658000: system.ruby.cp_cntrl1.sequencer: Cache miss at [0x107ab90, line 0x107ab80]
351482658000: system.ruby.cp_cntrl0.sequencer: Cache miss at [0x23a9710, line 0x23a9700]
351482660000: system.ruby.cp_cntrl0.sequencer: Cache miss at [0x23a9718, line 0x23a9700]
351482660000: system.ruby.cp_cntrl1.sequencer: Cache miss at [0x107ab90, line 0x107ab80]
351482662000: system.ruby.cp_cntrl1.sequencer: Cache miss at [0x107ab98, line 0x107ab80]
351482662000: system.ruby.cp_cntrl0.sequencer: Cache miss at [0x23a9718, line 0x23a9700]
351482664000: system.ruby.cp_cntrl0.sequencer: Cache miss at [0x23a9718, line 0x23a9700]
351482664000: system.ruby.cp_cntrl1.sequencer: Cache miss at [0x107ab98, line 0x107ab80]
351482666000: system.ruby.cp_cntrl1.L2cache: profiledemandMiss 518351482666000: system.ruby.cp_cntrl1.L1D0cache: profiledemandMiss 280351482666000: system.ruby.cp_cntrl0.sequencer: Cache miss at [0x23a9720, line 0x23a9700]
351482668000: system.ruby.cp_cntrl0.sequencer: Cache miss at [0x23a9720, line 0x23a9700]
351482670000: system.ruby.cp_cntrl0.sequencer: Cache miss at [0x23a9720, line 0x23a9700]
351482672000: system.ruby.cp_cntrl0.sequencer: Cache miss at [0x38b08, line 0x38b00]
351482674000: system.ruby.cp_cntrl0.sequencer: Cache miss at [0x4faa740, line 0x4faa740]
351482676000: system.ruby.cp_cntrl0.sequencer: Cache miss at [0x10cf0b8, line 0x10cf080]
351482678000: system.ruby.cp_cntrl0.sequencer: Cache miss at [0x4faa748, line 0x4faa740]
351482680000: system.ruby.cp_cntrl0.sequencer: Cache miss at [0x4faa748, line 0x4faa740]
351482682000: system.ruby.cp_cntrl0.sequencer: Cache miss at [0x4faa740, line 0x4faa740]
351482684000: system.ruby.cp_cntrl0.sequencer: Cache miss at [0x38b08, line 0x38b00]
351482686000: system.ruby.cp_cntrl0.sequencer: Cache miss at [0xfaa3f0, line 0xfaa3c0]
351482688000: system.ruby.cp_cntrl0.sequencer: Cache miss at [0xfaa3f0, line 0xfaa3c0]
351482690000: system.ruby.cp_cntrl0.sequencer: Cache miss at [0xfaa3f8, line 0xfaa3c0]
351482692000: system.ruby.cp_cntrl0.sequencer: Cache miss at [0xf90c20, line 0xf90c00]
351482694000: system.ruby.cp_cntrl0.sequencer: Cache miss at [0xc62610, line 0xc62600]
351482696000: system.ruby.cp_cntrl0.sequencer: Cache miss at [0x23a9710, line 0x23a9700]
351482698000: system.ruby.cp_cntrl0.sequencer: Cache miss at [0x23a9710, line 0x23a9700]
351482700000: system.ruby.cp_cntrl0.sequencer: Cache miss at [0x23a9718, line 0x23a9700]
351482702000: system.ruby.cp_cntrl0.sequencer: Cache miss at [0x23a9718, line 0x23a9700]
351482704000: system.ruby.cp_cntrl0.sequencer: Cache miss at [0x23a9718, line 0x23a9700]
351482706000: system.ruby.cp_cntrl0.sequencer: Cache miss at [0x23a9720, line 0x23a9700]
351482708000: system.ruby.cp_cntrl0.sequencer: Cache miss at [0x23a9720, line 0x23a9700]
351482710000: system.ruby.cp_cntrl0.sequencer: Cache miss at [0x23a9720, line 0x23a9700]
351482712000: system.ruby.cp_cntrl0.sequencer: Cache miss at [0x38b08, line 0x38b00]
351482714000: system.ruby.cp_cntrl0.sequencer: Cache miss at [0x4faa740, line 0x4faa740]
351482716000: system.ruby.cp_cntrl0.sequencer: Cache miss at [0x10cf0b8, line 0x10cf080]
351482718000: system.ruby.cp_cntrl0.sequencer: Cache miss at [0x4faa748, line 0x4faa740]
351482720000: system.ruby.cp_cntrl0.sequencer: Cache miss at [0x4faa748, line 0x4faa740]
351482722000: system.ruby.cp_cntrl0.sequencer: Cache miss at [0x4faa740, line 0x4faa740]
351482724000: system.ruby.cp_cntrl0.sequencer: Cache miss at [0x38b08, line 0x38b00]
351482726000: system.ruby.cp_cntrl0.sequencer: Cache miss at [0xfaa3f0, line 0xfaa3c0]
351482728000: system.ruby.cp_cntrl0.sequencer: Cache miss at [0xfaa3f0, line 0xfaa3c0]
351482730000: system.ruby.cp_cntrl0.sequencer: Cache miss at [0xfaa3f8, line 0xfaa3c0]
351482732000: system.ruby.cp_cntrl0.sequencer: Cache miss at [0xf90c20, line 0xf90c00]
351482734000: system.ruby.cp_cntrl0.sequencer: Cache miss at [0xc62610, line 0xc62600]
351482736000: system.ruby.cp_cntrl0.sequencer: Cache miss at [0x23a9710, line 0x23a9700]
351482738000: system.ruby.cp_cntrl0.sequencer: Cache miss at [0x23a9710, line 0x23a9700]
351482740000: system.ruby.cp_cntrl0.sequencer: Cache miss at [0x23a9718, line 0x23a9700]
[...]
351483745000: system.ruby.cp_cntrl1.sequencer: Cache miss at [0x4fab890, line 0x4fab880]
351483746000: system.ruby.cp_cntrl0.sequencer: Cache miss at [0x23a9720, line 0x23a9700]
351483747000: system.ruby.cp_cntrl1.sequencer: Cache miss at [0x4fab890, line 0x4fab880]
351483748000: system.ruby.cp_cntrl0.sequencer: Cache miss at [0x23a9720, line 0x23a9700]
351483749000: system.ruby.cp_cntrl1.sequencer: Cache miss at [0x4fab890, line 0x4fab880]
351483750000: system.ruby.cp_cntrl0.sequencer: Cache miss at [0x23a9720, line 0x23a9700]
351483751000: system.ruby.cp_cntrl1.sequencer: Cache miss at [0x4fab898, line 0x4fab880]
351483752000: system.ruby.cp_cntrl0.sequencer: Cache miss at [0x38b08, line 0x38b00]
351483753000: system.ruby.cp_cntrl1.sequencer: Cache miss at [0x4fab898, line 0x4fab880]
351483754000: system.ruby.cp_cntrl0.sequencer: Cache miss at [0x4faa740, line 0x4faa740]
351483755000: system.ruby.cp_cntrl1.sequencer: Cache miss at [0x4fab8a0, line 0x4fab880]
351483756000: system.ruby.cp_cntrl0.sequencer: Cache miss at [0x10cf0b8, line 0x10cf080]
351483757000: system.ruby.cp_cntrl1.L2cache: profiledemandMiss 521351483757000: system.ruby.cp_cntrl1.L1D0cache: profiledemandMiss 283351483758000: system.ruby.cp_cntrl0.sequencer: Cache miss at [0x4faa748, line 0x4faa740]
351483760000: system.ruby.cp_cntrl0.sequencer: Cache miss at [0x4faa748, line 0x4faa740]
351483762000: system.ruby.cp_cntrl0.sequencer: Cache miss at [0x4faa740, line 0x4faa740]
351483764000: system.ruby.cp_cntrl0.sequencer: Cache miss at [0x38b08, line 0x38b00]
351483766000: system.ruby.cp_cntrl0.sequencer: Cache miss at [0xfaa3f0, line 0xfaa3c0]
351483768000: system.ruby.cp_cntrl0.sequencer: Cache miss at [0xfaa3f0, line 0xfaa3c0]
351483770000: system.ruby.cp_cntrl0.sequencer: Cache miss at [0xfaa3f8, line 0xfaa3c0]
351483772000: system.ruby.cp_cntrl0.sequencer: Cache miss at [0xf90c20, line 0xf90c00]
351483774000: system.ruby.cp_cntrl0.sequencer: Cache miss at [0xc62610, line 0xc62600]
351483776000: system.ruby.cp_cntrl0.sequencer: Cache miss at [0x23a9710, line 0x23a9700]
351483776055: system.ruby.tcp_cntrl0: GPU_VIPER-TCP.sm:668: in TCP uu_profileDataMiss noBypass Noforward
351483776055: system.ruby.tcp_cntrl0.L1cache: profiledemandMiss 69351483778000: system.ruby.cp_cntrl0.sequencer: Cache miss at [0x23a9710, line 0x23a9700]
351483779385: system.ruby.tcc_cntrl0.L2cache: profiledemandMiss 39351483779385: system.ruby.tcc_cntrl0: GPU_VIPER-TCC.sm:639: in TCC Miss profile
351483780000: system.ruby.cp_cntrl0.sequencer: Cache miss at [0x23a9718, line 0x23a9700]
351483782000: system.ruby.cp_cntrl0.sequencer: Cache miss at [0x23a9718, line 0x23a9700]
351483784000: system.ruby.cp_cntrl0.sequencer: Cache miss at [0x23a9718, line 0x23a9700]
351483786000: system.ruby.cp_cntrl0.sequencer: Cache miss at [0x23a9720, line 0x23a9700]
351483788000: system.ruby.cp_cntrl0.sequencer: Cache miss at [0x23a9720, line 0x23a9700]
351483790000: system.ruby.cp_cntrl0.sequencer: Cache miss at [0x23a9720, line 0x23a9700]
351483792000: system.ruby.cp_cntrl0.sequencer: Cache miss at [0x38b08, line 0x38b00]
351483794000: system.ruby.cp_cntrl0.sequencer: Cache miss at [0x4faa740, line 0x4faa740]
351483796000: system.ruby.cp_cntrl0.sequencer: Cache miss at [0x10cf0b8, line 0x10cf080]
351483798000: system.ruby.cp_cntrl0.sequencer: Cache miss at [0x4faa748, line 0x4faa740]
351483800000: system.ruby.cp_cntrl0.sequencer: Cache miss at [0x4faa748, line 0x4faa740]
351483802000: system.ruby.cp_cntrl0.sequencer: Cache miss at [0x4faa740, line 0x4faa740]
351483804000: system.ruby.cp_cntrl0.sequencer: Cache miss at [0x38b08, line 0x38b00]
351483806000: system.ruby.cp_cntrl0.sequencer: Cache miss at [0xfaa3f0, line 0xfaa3c0]
351483808000: system.ruby.cp_cntrl0.sequencer: Cache miss at [0xfaa3f0, line 0xfaa3c0]
351483810000: system.ruby.cp_cntrl0.sequencer: Cache miss at [0xfaa3f8, line 0xfaa3c0]
351483812000: system.ruby.cp_cntrl0.sequencer: Cache miss at [0xf90c20, line 0xf90c00]
351483814000: system.ruby.cp_cntrl0.sequencer: Cache miss at [0xc62610, line 0xc62600]
351483816000: system.ruby.cp_cntrl0.sequencer: Cache miss at [0x23a9710, line 0x23a9700]
351483818000: system.ruby.cp_cntrl0.sequencer: Cache miss at [0x23a9710, line 0x23a9700]
351483820000: system.ruby.cp_cntrl0.sequencer: Cache miss at [0x23a9718, line 0x23a9700]
351483822000: system.ruby.cp_cntrl0.sequencer: Cache miss at [0x23a9718, line 0x23a9700]
351483824000: system.ruby.cp_cntrl0.sequencer: Cache miss at [0x23a9718, line 0x23a9700]
351483826000: system.ruby.cp_cntrl0.sequencer: Cache miss at [0x23a9720, line 0x23a9700]
351483828000: system.ruby.cp_cntrl0.sequencer: Cache miss at [0x23a9720, line 0x23a9700]
351483830000: system.ruby.cp_cntrl0.sequencer: Cache miss at [0x23a9720, line 0x23a9700]
351483832000: system.ruby.cp_cntrl0.sequencer: Cache miss at [0x38b08, line 0x38b00]
351483834000: system.ruby.cp_cntrl0.sequencer: Cache miss at [0x4faa740, line 0x4faa740]
351483836000: system.ruby.cp_cntrl0.sequencer: Cache miss at [0x10cf0b8, line 0x10cf080]
351483838000: system.ruby.cp_cntrl0.sequencer: Cache miss at [0x4faa748, line 0x4faa740]
351483840000: system.ruby.cp_cntrl0.sequencer: Cache miss at [0x4faa748, line 0x4faa740]
351483842000: system.ruby.cp_cntrl0.sequencer: Cache miss at [0x4faa740, line 0x4faa740]
351483844000: system.ruby.cp_cntrl0.sequencer: Cache miss at [0x38b08, line 0x38b00]
351483846000: system.ruby.cp_cntrl0.sequencer: Cache miss at [0xfaa3f0, line 0xfaa3c0]
351483848000: system.ruby.cp_cntrl0.sequencer: Cache miss at [0xfaa3f0, line 0xfaa3c0]
351483850000: system.ruby.dir_cntrl19.L3CacheMemory: profiledemandMiss 125351483850000: system.ruby.cp_cntrl0.sequencer: Cache miss at [0xfaa3f8, line 0xfaa3c0]
351483852000: system.ruby.cp_cntrl0.sequencer: Cache miss at [0xf90c20, line 0xf90c00]
351483854000: system.ruby.cp_cntrl0.sequencer: Cache miss at [0xc62610, line 0xc62600]
351483856000: system.ruby.cp_cntrl0.sequencer: Cache miss at [0x23a9710, line 0x23a9700]
351483858000: system.ruby.cp_cntrl0.sequencer: Cache miss at [0x23a9710, line 0x23a9700]
351483860000: system.ruby.cp_cntrl0.sequencer: Cache miss at [0x23a9718, line 0x23a9700]
351483862000: system.ruby.cp_cntrl0.sequencer: Cache miss at [0x23a9718, line 0x23a9700]
351483864000: system.ruby.cp_cntrl0.sequencer: Cache miss at [0x23a9718, line 0x23a9700]
351483866000: system.ruby.cp_cntrl0.sequencer: Cache miss at [0x23a9720, line 0x23a9700]
351483868000: system.ruby.cp_cntrl0.sequencer: Cache miss at [0x23a9720, line 0x23a9700]
351483870000: system.ruby.cp_cntrl0.sequencer: Cache miss at [0x23a9720, line 0x23a9700]
351483872000: system.ruby.cp_cntrl0.sequencer: Cache miss at [0x38b08, line 0x38b00]
351483874000: system.ruby.cp_cntrl0.sequencer: Cache miss at [0x4faa740, line 0x4faa740]
351483876000: system.ruby.cp_cntrl0.sequencer: Cache miss at [0x10cf0b8, line 0x10cf080]
351483878000: system.ruby.cp_cntrl0.sequencer: Cache miss at [0x4faa748, line 0x4faa740]
351483880000: system.ruby.cp_cntrl0.sequencer: Cache miss at [0x4faa748, line 0x4faa740]
351483881000: system.ruby.dir_cntrl11.L3CacheMemory: profiledemandMiss 133351483882000: system.ruby.cp_cntrl0.sequencer: Cache miss at [0x4faa740, line 0x4faa740]
351483884000: system.ruby.cp_cntrl0.sequencer: Cache miss at [0x38b08, line 0x38b00]
351483886000: system.ruby.cp_cntrl0.sequencer: Cache miss at [0xfaa3f0, line 0xfaa3c0]
351483888000: system.ruby.cp_cntrl0.sequencer: Cache miss at [0xfaa3f0, line 0xfaa3c0]
351483890000: system.ruby.cp_cntrl0.sequencer: Cache miss at [0xfaa3f8, line 0xfaa3c0]
351483892000: system.ruby.cp_cntrl0.sequencer: Cache miss at [0xf90c20, line 0xf90c00]
351483894000: system.ruby.cp_cntrl0.sequencer: Cache miss at [0xc62610, line 0xc62600]
351483896000: system.ruby.cp_cntrl0.sequencer: Cache miss at [0x23a9710, line 0x23a9700]
351483898000: system.ruby.cp_cntrl0.sequencer: Cache miss at [0x23a9710, line 0x23a9700]
351483900000: system.ruby.cp_cntrl0.sequencer: Cache miss at [0x23a9718, line 0x23a9700]
351483902000: system.ruby.cp_cntrl0.sequencer: Cache miss at [0x23a9718, line 0x23a9700]
351483904000: system.ruby.cp_cntrl0.sequencer: Cache miss at [0x23a9718, line 0x23a9700]
351483906000: system.ruby.cp_cntrl0.sequencer: Cache miss at [0x23a9720, line 0x23a9700]
351483908000: system.ruby.cp_cntrl0.sequencer: Cache miss at [0x23a9720, line 0x23a9700]
351483910000: system.ruby.cp_cntrl0.sequencer: Cache miss at [0x23a9720, line 0x23a9700]
351483912000: system.ruby.cp_cntrl0.sequencer: Cache miss at [0x38b08, line 0x38b00]
351483914000: system.ruby.cp_cntrl0.sequencer: Cache miss at [0x4faa740, line 0x4faa740]
351483916000: system.ruby.cp_cntrl0.sequencer: Cache miss at [0x10cf0b8, line 0x10cf080]
351483918000: system.ruby.cp_cntrl0.sequencer: Cache miss at [0x4faa748, line 0x4faa740]
351483920000: system.ruby.cp_cntrl0.sequencer: Cache miss at [0x4faa748, line 0x4faa740]
351483922000: system.ruby.cp_cntrl0.sequencer: Cache miss at [0x4faa740, line 0x4faa740]
351483924000: system.ruby.cp_cntrl0.sequencer: Cache miss at [0x38b08, line 0x38b00]
351483926000: system.ruby.cp_cntrl0.sequencer: Cache miss at [0xfaa3f0, line 0xfaa3c0]
351483928000: system.ruby.cp_cntrl0.sequencer: Cache miss at [0xfaa3f0, line 0xfaa3c0]
351483930000: system.ruby.cp_cntrl0.sequencer: Cache miss at [0xfaa3f8, line 0xfaa3c0]
351483932000: system.ruby.cp_cntrl0.sequencer: Cache miss at [0xf90c20, line 0xf90c00]
351483934000: system.ruby.cp_cntrl0.sequencer: Cache miss at [0xc62610, line 0xc62600]
351483936000: system.ruby.cp_cntrl0.sequencer: Cache miss at [0x23a9710, line 0x23a9700]
351483938000: system.ruby.cp_cntrl0.sequencer: Cache miss at [0x23a9710, line 0x23a9700]
351483940000: system.ruby.cp_cntrl0.sequencer: Cache miss at [0x23a9718, line 0x23a9700]
351483942000: system.ruby.cp_cntrl0.sequencer: Cache miss at [0x23a9718, line 0x23a9700]
351483944000: system.ruby.cp_cntrl0.sequencer: Cache miss at [0x23a9718, line 0x23a9700]
351483946000: system.ruby.cp_cntrl0.sequencer: Cache miss at [0x23a9720, line 0x23a9700]
351483948000: system.ruby.cp_cntrl0.sequencer: Cache miss at [0x23a9720, line 0x23a9700]
351483950000: system.ruby.cp_cntrl0.sequencer: Cache miss at [0x23a9720, line 0x23a9700]
351483952000: system.ruby.cp_cntrl0.sequencer: Cache miss at [0x38b08, line 0x38b00]
351483954000: system.ruby.cp_cntrl0.sequencer: Cache miss at [0x4faa740, line 0x4faa740]
351483956000: system.ruby.cp_cntrl0.sequencer: Cache miss at [0x10cf0b8, line 0x10cf080]
351483958000: system.ruby.cp_cntrl0.sequencer: Cache miss at [0x4faa748, line 0x4faa740]
351483960000: system.ruby.cp_cntrl0.sequencer: Cache miss at [0x4faa748, line 0x4faa740]
351483962000: system.ruby.cp_cntrl0.sequencer: Cache miss at [0x4faa740, line 0x4faa740]
351483964000: system.ruby.cp_cntrl0.sequencer: Cache miss at [0x38b08, line 0x38b00]
351483966000: system.ruby.cp_cntrl0.sequencer: Cache miss at [0xfaa3f0, line 0xfaa3c0]
351483968000: system.ruby.cp_cntrl0.sequencer: Cache miss at [0xfaa3f0, line 0xfaa3c0]
351483970000: system.ruby.cp_cntrl0.sequencer: Cache miss at [0xfaa3f8, line 0xfaa3c0]
351483972000: system.ruby.cp_cntrl0.sequencer: Cache miss at [0xf90c20, line 0xf90c00]
351483974000: system.ruby.cp_cntrl0.sequencer: Cache miss at [0xc62610, line 0xc62600]
351483976000: system.ruby.cp_cntrl0.sequencer: Cache miss at [0x23a9710, line 0x23a9700]
351483978000: system.ruby.cp_cntrl0.sequencer: Cache miss at [0x23a9710, line 0x23a9700]
351483980000: system.ruby.cp_cntrl0.sequencer: Cache miss at [0x23a9718, line 0x23a9700]
351483982000: system.ruby.cp_cntrl0.sequencer: Cache miss at [0x23a9718, line 0x23a9700]
351483984000: system.ruby.cp_cntrl0.sequencer: Cache miss at [0x23a9718, line 0x23a9700]
351483986000: system.ruby.cp_cntrl0.sequencer: Cache miss at [0x23a9720, line 0x23a9700]
351483988000: system.ruby.cp_cntrl0.sequencer: Cache miss at [0x23a9720, line 0x23a9700]
351483990000: system.ruby.cp_cntrl0.sequencer: Cache miss at [0x23a9720, line 0x23a9700]
351483992000: system.ruby.cp_cntrl0.sequencer: Cache miss at [0x38b08, line 0x38b00]
351483994000: system.ruby.cp_cntrl0.sequencer: Cache miss at [0x4faa740, line 0x4faa740]
351483996000: system.ruby.cp_cntrl0.sequencer: Cache miss at [0x10cf0b8, line 0x10cf080]
351483998000: system.ruby.cp_cntrl0.sequencer: Cache miss at [0x4faa748, line 0x4faa740]
351484000000: system.ruby.cp_cntrl0.sequencer: Cache miss at [0x4faa748, line 0x4faa740]
351484002000: system.ruby.cp_cntrl0.sequencer: Cache miss at [0x4faa740, line 0x4faa740]
351484004000: system.ruby.cp_cntrl0.sequencer: Cache miss at [0x38b08, line 0x38b00]
351484006000: system.ruby.cp_cntrl0.sequencer: Cache miss at [0xfaa3f0, line 0xfaa3c0]
351484008000: system.ruby.cp_cntrl0.sequencer: Cache miss at [0xfaa3f0, line 0xfaa3c0]
351484010000: system.ruby.cp_cntrl0.sequencer: Cache miss at [0xfaa3f8, line 0xfaa3c0]
351484012000: system.ruby.cp_cntrl0.sequencer: Cache miss at [0xf90c20, line 0xf90c00]
351484014000: system.ruby.cp_cntrl0.sequencer: Cache miss at [0xc62610, line 0xc62600]
351484016000: system.ruby.cp_cntrl0.sequencer: Cache miss at [0x23a9710, line 0x23a9700]
351484018000: system.ruby.cp_cntrl0.sequencer: Cache miss at [0x23a9710, line 0x23a9700]
351484020000: system.ruby.cp_cntrl0.sequencer: Cache miss at [0x23a9718, line 0x23a9700]
351484022000: system.ruby.cp_cntrl0.sequencer: Cache miss at [0x23a9718, line 0x23a9700]
351484024000: system.ruby.cp_cntrl0.sequencer: Cache miss at [0x23a9718, line 0x23a9700]
351484026000: system.ruby.cp_cntrl0.sequencer: Cache miss at [0x23a9720, line 0x23a9700]
351484028000: system.ruby.cp_cntrl0.sequencer: Cache miss at [0x23a9720, line 0x23a9700]
351484030000: system.ruby.cp_cntrl0.sequencer: Cache miss at [0x23a9720, line 0x23a9700]
351484032000: system.ruby.cp_cntrl0.sequencer: Cache miss at [0x38b08, line 0x38b00]
351484034000: system.ruby.cp_cntrl0.sequencer: Cache miss at [0x4faa740, line 0x4faa740]
351484036000: system.ruby.cp_cntrl0.sequencer: Cache miss at [0x10cf0b8, line 0x10cf080]
351484038000: system.ruby.cp_cntrl0.sequencer: Cache miss at [0x4faa748, line 0x4faa740]
351484040000: system.ruby.cp_cntrl0.sequencer: Cache miss at [0x4faa748, line 0x4faa740]
351484042000: system.ruby.cp_cntrl0.sequencer: Cache miss at [0x4faa740, line 0x4faa740]
351484044000: system.ruby.cp_cntrl0.sequencer: Cache miss at [0x38b08, line 0x38b00]
351484046000: system.ruby.cp_cntrl0.sequencer: Cache miss at [0xfaa3f0, line 0xfaa3c0]
351484048000: system.ruby.cp_cntrl0.sequencer: Cache miss at [0xfaa3f0, line 0xfaa3c0]
351484050000: system.ruby.cp_cntrl0.sequencer: Cache miss at [0xfaa3f8, line 0xfaa3c0]
351484052000: system.ruby.cp_cntrl0.sequencer: Cache miss at [0xf90c20, line 0xf90c00]
351484054000: system.ruby.cp_cntrl0.sequencer: Cache miss at [0xc62610, line 0xc62600]
351484056000: system.ruby.cp_cntrl0.sequencer: Cache miss at [0x23a9710, line 0x23a9700]
351484058000: system.ruby.cp_cntrl0.sequencer: Cache miss at [0x23a9710, line 0x23a9700]
351484060000: system.ruby.cp_cntrl0.sequencer: Cache miss at [0x23a9718, line 0x23a9700]
351484062000: system.ruby.cp_cntrl0.sequencer: Cache miss at [0x23a9718, line 0x23a9700]
351484064000: system.ruby.cp_cntrl0.sequencer: Cache miss at [0x23a9718, line 0x23a9700]
351484066000: system.ruby.cp_cntrl0.sequencer: Cache miss at [0x23a9720, line 0x23a9700]
351484068000: system.ruby.cp_cntrl0.sequencer: Cache miss at [0x23a9720, line 0x23a9700]
351484070000: system.ruby.cp_cntrl0.sequencer: Cache miss at [0x23a9720, line 0x23a9700]
351484072000: system.ruby.cp_cntrl0.sequencer: Cache miss at [0x38b08, line 0x38b00]
351484074000: system.ruby.cp_cntrl1.sequencer: Cache hit at [0x10d66e8, line 0x10d66c0]
351484074000: system.ruby.cp_cntrl0.sequencer: Cache miss at [0x4faa740, line 0x4faa740]
351484076000: system.ruby.cp_cntrl0.sequencer: Cache miss at [0x10cf0b8, line 0x10cf080]
351484076000: system.ruby.cp_cntrl1.sequencer: Cache miss at [0x4fab8a0, line 0x4fab880]
351484078000: system.ruby.cp_cntrl1.sequencer: Cache miss at [0x4fab8a0, line 0x4fab880]
351484078000: system.ruby.cp_cntrl0.sequencer: Cache miss at [0x4faa748, line 0x4faa740]
351484080000: system.ruby.cp_cntrl0.sequencer: Cache miss at [0x4faa748, line 0x4faa740]
351484080000: system.ruby.cp_cntrl1.sequencer: Cache miss at [0x4fab8d0, line 0x4fab8c0]
351484082000: system.ruby.cp_cntrl1.L2cache: profiledemandMiss 522351484082000: system.ruby.cp_cntrl1.L1D0cache: profiledemandMiss 284351484082000: system.ruby.cp_cntrl0.sequencer: Cache miss at [0x4faa740, line 0x4faa740]
351484084000: system.ruby.cp_cntrl0.sequencer: Cache miss at [0x38b08, line 0x38b00]
351484086000: system.ruby.cp_cntrl0.sequencer: Cache miss at [0xfaa3f0, line 0xfaa3c0]
351484088000: system.ruby.cp_cntrl0.sequencer: Cache miss at [0xfaa3f0, line 0xfaa3c0]
351484090000: system.ruby.cp_cntrl0.sequencer: Cache miss at [0xfaa3f8, line 0xfaa3c0]
351484092000: system.ruby.cp_cntrl0.sequencer: Cache miss at [0xf90c20, line 0xf90c00]
351484094000: system.ruby.cp_cntrl0.sequencer: Cache miss at [0xc62610, line 0xc62600]
351484096000: system.ruby.cp_cntrl0.sequencer: Cache miss at [0x23a9710, line 0x23a9700]
351484098000: system.ruby.cp_cntrl0.sequencer: Cache miss at [0x23a9710, line 0x23a9700]
351484100000: system.ruby.cp_cntrl0.sequencer: Cache miss at [0x23a9718, line 0x23a9700]
351484102000: system.ruby.cp_cntrl0.sequencer: Cache miss at [0x23a9718, line 0x23a9700]
351484104000: system.ruby.cp_cntrl0.sequencer: Cache miss at [0x23a9718, line 0x23a9700]
351484106000: system.ruby.cp_cntrl0.sequencer: Cache miss at [0x23a9720, line 0x23a9700]
351484108000: system.ruby.cp_cntrl0.sequencer: Cache miss at [0x23a9720, line 0x23a9700]
351484110000: system.ruby.cp_cntrl0.sequencer: Cache miss at [0x23a9720, line 0x23a9700]
351484112000: system.ruby.cp_cntrl0.sequencer: Cache miss at [0x38b08, line 0x38b00]
351484114000: system.ruby.cp_cntrl0.sequencer: Cache miss at [0x4faa740, line 0x4faa740]
351484114050: system.ruby.tcp_cntrl0.coalescer: ReadCallBack GPU Cache miss at <extra arg>%x
351484114050: system.ruby.tcp_cntrl0.coalescer: GPU Cache miss at [0x1387000, line 0x1387000]
351484116000: system.ruby.cp_cntrl0.sequencer: Cache miss at [0x10cf0b8, line 0x10cf080]
351484118000: system.ruby.cp_cntrl0.sequencer: Cache miss at [0x4faa748, line 0x4faa740]
351484120000: system.ruby.cp_cntrl0.sequencer: Cache miss at [0x4faa748, line 0x4faa740]
351484122000: system.ruby.cp_cntrl0.sequencer: Cache miss at [0x4faa740, line 0x4faa740]
351484124000: system.ruby.cp_cntrl0.sequencer: Cache miss at [0x38b08, line 0x38b00]
351484126000: system.ruby.cp_cntrl0.sequencer: Cache miss at [0xfaa3f0, line 0xfaa3c0]
351484128000: system.ruby.cp_cntrl0.sequencer: Cache miss at [0xfaa3f0, line 0xfaa3c0]
351484130000: system.ruby.cp_cntrl0.sequencer: Cache miss at [0xfaa3f8, line 0xfaa3c0]
351484132000: system.ruby.cp_cntrl0.sequencer: Cache miss at [0xf90c20, line 0xf90c00]
351484134000: system.ruby.cp_cntrl0.sequencer: Cache miss at [0xc62610, line 0xc62600]
351484136000: system.ruby.cp_cntrl0.sequencer: Cache miss at [0x23a9710, line 0x23a9700]
351484138000: system.ruby.cp_cntrl0.sequencer: Cache miss at [0x23a9710, line 0x23a9700]
351484140000: system.ruby.cp_cntrl0.sequencer: Cache miss at [0x23a9718, line 0x23a9700]
351484142000: system.ruby.cp_cntrl0.sequencer: Cache miss at [0x23a9718, line 0x23a9700]
351484144000: system.ruby.cp_cntrl0.sequencer: Cache miss at [0x23a9718, line 0x23a9700]
351484146000: system.ruby.cp_cntrl0.sequencer: Cache miss at [0x23a9720, line 0x23a9700]
351484148000: system.ruby.cp_cntrl0.sequencer: Cache miss at [0x23a9720, line 0x23a9700]
351484150000: system.ruby.cp_cntrl0.sequencer: Cache miss at [0x23a9720, line 0x23a9700]
351484152000: system.ruby.cp_cntrl0.sequencer: Cache miss at [0x38b08, line 0x38b00]
351484154000: system.ruby.cp_cntrl0.sequencer: Cache miss at [0x4faa740, line 0x4faa740]
Ticks: 358471853500
Exiting because  exiting with last active thread context
