Global frequency set at 1000000000000 ticks per second
Forcing maxCoalescedReqs to 32 (TLB assoc.) 
Forcing maxCoalescedReqs to 32 (TLB assoc.) 
Forcing maxCoalescedReqs to 32 (TLB assoc.) 
Forcing maxCoalescedReqs to 32 (TLB assoc.) 
Forcing maxCoalescedReqs to 32 (TLB assoc.) 
Forcing maxCoalescedReqs to 32 (TLB assoc.) 
Forcing maxCoalescedReqs to 32 (TLB assoc.) 
Forcing maxCoalescedReqs to 32 (TLB assoc.) 
gem5 Simulator System.  https://www.gem5.org
gem5 is copyrighted software; use the --copyright option for details.

gem5 version DEVELOP-FOR-23.1
gem5 compiled Nov 19 2023 12:06:45
gem5 started Nov 20 2023 01:23:27
gem5 executing on bf3fbeb53980, pid 1
command line: build/VEGA_X86/gem5.opt --debug-flag=GPUKernelInfo configs/example/apu_se.py -n 3 --dgpu --gfx-version=gfx900 --num-compute-units=4 --cu-per-sa=4 --num-gpu-complex=1 --reg-alloc-policy=dynamic --num-tccs=8 --num-dirs=64 --mem-size=16GB --mem-type=HBM_2000_4H_1x64 --vreg-file-size=16384 --sreg-file-size=800 --tcc-size=256kB --gpu-clock=1801MHz --ruby-clock=1000MHz --vrf_lm_bus_latency=6 --mem-req-latency=69 --mem-resp-latency=69 --mandatory_queue_latency=1 --max-cu-tokens=160 --max-coalesces-per-cycle=10 --sqc-size=16kB --tcp-size=512B --scalar-mem-req-latency=28 --TCP_latency=4 --tcp-assoc=4 --tcp-num-banks=16 --TCC_latency=121 --tcc-assoc=16 --tcc-tag-access-latency=1 --tcc-data-access-latency=1 --tcp-rp=FIFORP --WB_L2 --tcc-rp=FIFORP -c gpu_test_no_wait/fifo_test_1

info: Standard input is not a terminal, disabling listeners.
Num SQC =  1 Num scalar caches =  1 Num CU =  4
159539049001: system.cpu0.workload.drivers0.device: Kernel name: Blit kernel
159539559631: system.cpu0.workload.drivers0.device.dispatcher: Launched kernel 0
159544416990: system.cpu0.workload.drivers0.device.dispatcher: Launched kernel 0
159544419210: system.cpu0.workload.drivers0.device.dispatcher: Launched kernel 0
159544421430: system.cpu0.workload.drivers0.device.dispatcher: Launched kernel 0
159544430310: system.cpu0.workload.drivers0.device.dispatcher: Launched kernel 0
159544450290: system.cpu0.workload.drivers0.device.dispatcher: Launched kernel 0
159544452510: system.cpu0.workload.drivers0.device.dispatcher: Launched kernel 0
159544459170: system.cpu0.workload.drivers0.device.dispatcher: Launched kernel 0
159544461390: system.cpu0.workload.drivers0.device.dispatcher: Launched kernel 0
159544468050: system.cpu0.workload.drivers0.device.dispatcher: Launched kernel 0
159544470270: system.cpu0.workload.drivers0.device.dispatcher: Launched kernel 0
159544485810: system.cpu0.workload.drivers0.device.dispatcher: Launched kernel 0
159544488030: system.cpu0.workload.drivers0.device.dispatcher: Launched kernel 0
159544494690: system.cpu0.workload.drivers0.device.dispatcher: Launched kernel 0
159544496910: system.cpu0.workload.drivers0.device.dispatcher: Launched kernel 0
159544499130: system.cpu0.workload.drivers0.device.dispatcher: Launched kernel 0
159544501350: system.cpu0.workload.drivers0.device.dispatcher: Launched kernel 0
159544503570: system.cpu0.workload.drivers0.device.dispatcher: Launched kernel 0
159544505790: system.cpu0.workload.drivers0.device.dispatcher: Launched kernel 0
159544508010: system.cpu0.workload.drivers0.device.dispatcher: Launched kernel 0
159544510230: system.cpu0.workload.drivers0.device.dispatcher: Launched kernel 0
159544512450: system.cpu0.workload.drivers0.device.dispatcher: Launched kernel 0
159544514670: system.cpu0.workload.drivers0.device.dispatcher: Launched kernel 0
159544516890: system.cpu0.workload.drivers0.device.dispatcher: Launched kernel 0
159544519110: system.cpu0.workload.drivers0.device.dispatcher: Launched kernel 0
159544521330: system.cpu0.workload.drivers0.device.dispatcher: Launched kernel 0
159544523550: system.cpu0.workload.drivers0.device.dispatcher: Launched kernel 0
159544525770: system.cpu0.workload.drivers0.device.dispatcher: Launched kernel 0
159544527990: system.cpu0.workload.drivers0.device.dispatcher: Launched kernel 0
159544530210: system.cpu0.workload.drivers0.device.dispatcher: Launched kernel 0
159544532430: system.cpu0.workload.drivers0.device.dispatcher: Launched kernel 0
159544534650: system.cpu0.workload.drivers0.device.dispatcher: Launched kernel 0
159544536870: system.cpu0.workload.drivers0.device.dispatcher: Launched kernel 0
159547132605: system.cpu0.workload.drivers0.device.dispatcher: Completed kernel 0
160568166001: system.cpu0.workload.drivers0.device: Kernel name: Blit kernel
160568667271: system.cpu0.workload.drivers0.device.dispatcher: Launched kernel 1
160572326940: system.cpu0.workload.drivers0.device.dispatcher: Completed kernel 1
Dummy value = 0
Ticks: 167656670500
Exiting because  exiting with last active thread context
