Global frequency set at 1000000000000 ticks per second
Forcing maxCoalescedReqs to 32 (TLB assoc.) 
Forcing maxCoalescedReqs to 32 (TLB assoc.) 
Forcing maxCoalescedReqs to 32 (TLB assoc.) 
Forcing maxCoalescedReqs to 32 (TLB assoc.) 
Forcing maxCoalescedReqs to 32 (TLB assoc.) 
Forcing maxCoalescedReqs to 32 (TLB assoc.) 
Forcing maxCoalescedReqs to 32 (TLB assoc.) 
Forcing maxCoalescedReqs to 32 (TLB assoc.) 
gem5 Simulator System.  https://www.gem5.org
gem5 is copyrighted software; use the --copyright option for details.

gem5 version DEVELOP-FOR-23.1
gem5 compiled Nov 19 2023 12:06:45
gem5 started Nov 20 2023 02:09:35
gem5 executing on b1fda5ba8a64, pid 1
command line: build/VEGA_X86/gem5.opt --debug-flag=GPUKernelInfo configs/example/apu_se.py -n 3 --dgpu --gfx-version=gfx900 --num-compute-units=4 --cu-per-sa=4 --num-gpu-complex=1 --reg-alloc-policy=dynamic --num-tccs=8 --num-dirs=64 --mem-size=16GB --mem-type=HBM_2000_4H_1x64 --vreg-file-size=16384 --sreg-file-size=800 --tcc-size=256kB --gpu-clock=1801MHz --ruby-clock=1000MHz --vrf_lm_bus_latency=6 --mem-req-latency=69 --mem-resp-latency=69 --mandatory_queue_latency=1 --max-cu-tokens=160 --max-coalesces-per-cycle=10 --sqc-size=16kB --tcp-size=512B --scalar-mem-req-latency=28 --TCP_latency=4 --tcp-assoc=4 --tcp-num-banks=16 --TCC_latency=121 --tcc-assoc=16 --tcc-tag-access-latency=1 --tcc-data-access-latency=1 --tcp-rp=LRURP --WB_L2 --tcc-rp=LRURP -c gpu_test_no_wait/lru_test_4

info: Standard input is not a terminal, disabling listeners.
Num SQC =  1 Num scalar caches =  1 Num CU =  4
159535163001: system.cpu0.workload.drivers0.device: Kernel name: Blit kernel
159535673521: system.cpu0.workload.drivers0.device.dispatcher: Launched kernel 0
159540531990: system.cpu0.workload.drivers0.device.dispatcher: Launched kernel 0
159540534210: system.cpu0.workload.drivers0.device.dispatcher: Launched kernel 0
159540536430: system.cpu0.workload.drivers0.device.dispatcher: Launched kernel 0
159540545310: system.cpu0.workload.drivers0.device.dispatcher: Launched kernel 0
159540565290: system.cpu0.workload.drivers0.device.dispatcher: Launched kernel 0
159540567510: system.cpu0.workload.drivers0.device.dispatcher: Launched kernel 0
159540574170: system.cpu0.workload.drivers0.device.dispatcher: Launched kernel 0
159540576390: system.cpu0.workload.drivers0.device.dispatcher: Launched kernel 0
159540583050: system.cpu0.workload.drivers0.device.dispatcher: Launched kernel 0
159540585270: system.cpu0.workload.drivers0.device.dispatcher: Launched kernel 0
159540600810: system.cpu0.workload.drivers0.device.dispatcher: Launched kernel 0
159540603030: system.cpu0.workload.drivers0.device.dispatcher: Launched kernel 0
159540609690: system.cpu0.workload.drivers0.device.dispatcher: Launched kernel 0
159540611910: system.cpu0.workload.drivers0.device.dispatcher: Launched kernel 0
159540614130: system.cpu0.workload.drivers0.device.dispatcher: Launched kernel 0
159540616350: system.cpu0.workload.drivers0.device.dispatcher: Launched kernel 0
159540618570: system.cpu0.workload.drivers0.device.dispatcher: Launched kernel 0
159540620790: system.cpu0.workload.drivers0.device.dispatcher: Launched kernel 0
159540623010: system.cpu0.workload.drivers0.device.dispatcher: Launched kernel 0
159540625230: system.cpu0.workload.drivers0.device.dispatcher: Launched kernel 0
159540627450: system.cpu0.workload.drivers0.device.dispatcher: Launched kernel 0
159540629670: system.cpu0.workload.drivers0.device.dispatcher: Launched kernel 0
159540631890: system.cpu0.workload.drivers0.device.dispatcher: Launched kernel 0
159540634110: system.cpu0.workload.drivers0.device.dispatcher: Launched kernel 0
159540636330: system.cpu0.workload.drivers0.device.dispatcher: Launched kernel 0
159540638550: system.cpu0.workload.drivers0.device.dispatcher: Launched kernel 0
159540640770: system.cpu0.workload.drivers0.device.dispatcher: Launched kernel 0
159540642990: system.cpu0.workload.drivers0.device.dispatcher: Launched kernel 0
159540645210: system.cpu0.workload.drivers0.device.dispatcher: Launched kernel 0
159540647430: system.cpu0.workload.drivers0.device.dispatcher: Launched kernel 0
159540649650: system.cpu0.workload.drivers0.device.dispatcher: Launched kernel 0
159540651870: system.cpu0.workload.drivers0.device.dispatcher: Launched kernel 0
159543247605: system.cpu0.workload.drivers0.device.dispatcher: Completed kernel 0
160564280001: system.cpu0.workload.drivers0.device: Kernel name: Blit kernel
160564781161: system.cpu0.workload.drivers0.device.dispatcher: Launched kernel 1
160568436390: system.cpu0.workload.drivers0.device.dispatcher: Completed kernel 1
Dummy value = 0
Ticks: 167652244500
Exiting because  exiting with last active thread context
