Global frequency set at 1000000000000 ticks per second
Forcing maxCoalescedReqs to 32 (TLB assoc.) 
Forcing maxCoalescedReqs to 32 (TLB assoc.) 
Forcing maxCoalescedReqs to 32 (TLB assoc.) 
Forcing maxCoalescedReqs to 32 (TLB assoc.) 
Forcing maxCoalescedReqs to 32 (TLB assoc.) 
Forcing maxCoalescedReqs to 32 (TLB assoc.) 
Forcing maxCoalescedReqs to 32 (TLB assoc.) 
Forcing maxCoalescedReqs to 32 (TLB assoc.) 
gem5 Simulator System.  https://www.gem5.org
gem5 is copyrighted software; use the --copyright option for details.

gem5 version DEVELOP-FOR-23.1
gem5 compiled Nov 19 2023 12:06:45
gem5 started Nov 20 2023 03:02:11
gem5 executing on b6a40cbf6034, pid 1
command line: build/VEGA_X86/gem5.opt --debug-flag=GPUKernelInfo configs/example/apu_se.py -n 3 --dgpu --gfx-version=gfx900 --num-compute-units=4 --cu-per-sa=4 --num-gpu-complex=1 --reg-alloc-policy=dynamic --num-tccs=8 --num-dirs=64 --mem-size=16GB --mem-type=HBM_2000_4H_1x64 --vreg-file-size=16384 --sreg-file-size=800 --tcc-size=256kB --gpu-clock=1801MHz --ruby-clock=1000MHz --vrf_lm_bus_latency=6 --mem-req-latency=69 --mem-resp-latency=69 --mandatory_queue_latency=1 --max-cu-tokens=160 --max-coalesces-per-cycle=10 --sqc-size=16kB --tcp-size=512B --scalar-mem-req-latency=28 --TCP_latency=4 --tcp-assoc=4 --tcp-num-banks=16 --TCC_latency=121 --tcc-assoc=16 --tcc-tag-access-latency=1 --tcc-data-access-latency=1 --tcp-rp=TreePLRURP --WB_L2 --tcc-rp=TreePLRURP -c gpu_test_no_wait/tree_plru_test_2

info: Standard input is not a terminal, disabling listeners.
Num SQC =  1 Num scalar caches =  1 Num CU =  4
159532782001: system.cpu0.workload.drivers0.device: Kernel name: Blit kernel
159533293681: system.cpu0.workload.drivers0.device.dispatcher: Launched kernel 0
159538154370: system.cpu0.workload.drivers0.device.dispatcher: Launched kernel 0
159538156590: system.cpu0.workload.drivers0.device.dispatcher: Launched kernel 0
159538158810: system.cpu0.workload.drivers0.device.dispatcher: Launched kernel 0
159538167690: system.cpu0.workload.drivers0.device.dispatcher: Launched kernel 0
159538187670: system.cpu0.workload.drivers0.device.dispatcher: Launched kernel 0
159538189890: system.cpu0.workload.drivers0.device.dispatcher: Launched kernel 0
159538196550: system.cpu0.workload.drivers0.device.dispatcher: Launched kernel 0
159538198770: system.cpu0.workload.drivers0.device.dispatcher: Launched kernel 0
159538205430: system.cpu0.workload.drivers0.device.dispatcher: Launched kernel 0
159538207650: system.cpu0.workload.drivers0.device.dispatcher: Launched kernel 0
159538223190: system.cpu0.workload.drivers0.device.dispatcher: Launched kernel 0
159538225410: system.cpu0.workload.drivers0.device.dispatcher: Launched kernel 0
159538232070: system.cpu0.workload.drivers0.device.dispatcher: Launched kernel 0
159538234290: system.cpu0.workload.drivers0.device.dispatcher: Launched kernel 0
159538236510: system.cpu0.workload.drivers0.device.dispatcher: Launched kernel 0
159538238730: system.cpu0.workload.drivers0.device.dispatcher: Launched kernel 0
159538240950: system.cpu0.workload.drivers0.device.dispatcher: Launched kernel 0
159538243170: system.cpu0.workload.drivers0.device.dispatcher: Launched kernel 0
159538245390: system.cpu0.workload.drivers0.device.dispatcher: Launched kernel 0
159538247610: system.cpu0.workload.drivers0.device.dispatcher: Launched kernel 0
159538249830: system.cpu0.workload.drivers0.device.dispatcher: Launched kernel 0
159538252050: system.cpu0.workload.drivers0.device.dispatcher: Launched kernel 0
159538254270: system.cpu0.workload.drivers0.device.dispatcher: Launched kernel 0
159538256490: system.cpu0.workload.drivers0.device.dispatcher: Launched kernel 0
159538258710: system.cpu0.workload.drivers0.device.dispatcher: Launched kernel 0
159538260930: system.cpu0.workload.drivers0.device.dispatcher: Launched kernel 0
159538263150: system.cpu0.workload.drivers0.device.dispatcher: Launched kernel 0
159538265370: system.cpu0.workload.drivers0.device.dispatcher: Launched kernel 0
159538267590: system.cpu0.workload.drivers0.device.dispatcher: Launched kernel 0
159538269810: system.cpu0.workload.drivers0.device.dispatcher: Launched kernel 0
159538272030: system.cpu0.workload.drivers0.device.dispatcher: Launched kernel 0
159538274250: system.cpu0.workload.drivers0.device.dispatcher: Launched kernel 0
159540889410: system.cpu0.workload.drivers0.device.dispatcher: Completed kernel 0
160560922001: system.cpu0.workload.drivers0.device: Kernel name: Blit kernel
160561423966: system.cpu0.workload.drivers0.device.dispatcher: Launched kernel 1
160564556940: system.cpu0.workload.drivers0.device.dispatcher: Completed kernel 1
Dummy value = 0
Ticks: 167648654500
Exiting because  exiting with last active thread context
