Global frequency set at 1000000000000 ticks per second
Forcing maxCoalescedReqs to 32 (TLB assoc.) 
Forcing maxCoalescedReqs to 32 (TLB assoc.) 
Forcing maxCoalescedReqs to 32 (TLB assoc.) 
Forcing maxCoalescedReqs to 32 (TLB assoc.) 
Forcing maxCoalescedReqs to 32 (TLB assoc.) 
Forcing maxCoalescedReqs to 32 (TLB assoc.) 
Forcing maxCoalescedReqs to 32 (TLB assoc.) 
Forcing maxCoalescedReqs to 32 (TLB assoc.) 
gem5 Simulator System.  https://www.gem5.org
gem5 is copyrighted software; use the --copyright option for details.

gem5 version DEVELOP-FOR-23.1
gem5 compiled Nov  7 2023 23:23:15
gem5 started Nov 18 2023 07:48:48
gem5 executing on 42dc0ea826f4, pid 1
command line: build/VEGA_X86/gem5.opt --debug-flag=GPUKernelInfo configs/example/apu_se.py -n 3 --dgpu --gfx-version=gfx900 --num-compute-units=4 --cu-per-sa=4 --num-gpu-complex=1 --reg-alloc-policy=dynamic --num-tccs=8 --num-dirs=64 --mem-size=16GB --mem-type=HBM_2000_4H_1x64 --vreg-file-size=16384 --sreg-file-size=800 --tcc-size=256kB --gpu-clock=1801MHz --ruby-clock=1000MHz --vrf_lm_bus_latency=6 --mem-req-latency=69 --mem-resp-latency=69 --mandatory_queue_latency=1 --max-cu-tokens=160 --max-coalesces-per-cycle=10 --sqc-size=16kB --tcp-size=512B --scalar-mem-req-latency=28 --TCP_latency=4 --tcp-assoc=4 --tcp-num-banks=16 --TCC_latency=121 --tcc-assoc=16 --tcc-tag-access-latency=1 --tcc-data-access-latency=1 --tcp-rp=LFURP --WB_L2 --tcc-rp=LFURP -c gpu_test_fewer_wait/lfu_test_1

info: Standard input is not a terminal, disabling listeners.
Num SQC =  1 Num scalar caches =  1 Num CU =  4
159535199001: system.cpu0.workload.drivers0.device: Kernel name: Blit kernel
159535709596: system.cpu0.workload.drivers0.device.dispatcher: Launched kernel 0
159540567510: system.cpu0.workload.drivers0.device.dispatcher: Launched kernel 0
159540569730: system.cpu0.workload.drivers0.device.dispatcher: Launched kernel 0
159540571950: system.cpu0.workload.drivers0.device.dispatcher: Launched kernel 0
159540580830: system.cpu0.workload.drivers0.device.dispatcher: Launched kernel 0
159540600810: system.cpu0.workload.drivers0.device.dispatcher: Launched kernel 0
159540603030: system.cpu0.workload.drivers0.device.dispatcher: Launched kernel 0
159540609690: system.cpu0.workload.drivers0.device.dispatcher: Launched kernel 0
159540611910: system.cpu0.workload.drivers0.device.dispatcher: Launched kernel 0
159540618570: system.cpu0.workload.drivers0.device.dispatcher: Launched kernel 0
159540620790: system.cpu0.workload.drivers0.device.dispatcher: Launched kernel 0
159540636330: system.cpu0.workload.drivers0.device.dispatcher: Launched kernel 0
159540638550: system.cpu0.workload.drivers0.device.dispatcher: Launched kernel 0
159540645210: system.cpu0.workload.drivers0.device.dispatcher: Launched kernel 0
159540647430: system.cpu0.workload.drivers0.device.dispatcher: Launched kernel 0
159540649650: system.cpu0.workload.drivers0.device.dispatcher: Launched kernel 0
159540651870: system.cpu0.workload.drivers0.device.dispatcher: Launched kernel 0
159540654090: system.cpu0.workload.drivers0.device.dispatcher: Launched kernel 0
159540656310: system.cpu0.workload.drivers0.device.dispatcher: Launched kernel 0
159540658530: system.cpu0.workload.drivers0.device.dispatcher: Launched kernel 0
159540660750: system.cpu0.workload.drivers0.device.dispatcher: Launched kernel 0
159540662970: system.cpu0.workload.drivers0.device.dispatcher: Launched kernel 0
159540665190: system.cpu0.workload.drivers0.device.dispatcher: Launched kernel 0
159540667410: system.cpu0.workload.drivers0.device.dispatcher: Launched kernel 0
159540669630: system.cpu0.workload.drivers0.device.dispatcher: Launched kernel 0
159540671850: system.cpu0.workload.drivers0.device.dispatcher: Launched kernel 0
159540674070: system.cpu0.workload.drivers0.device.dispatcher: Launched kernel 0
159540676290: system.cpu0.workload.drivers0.device.dispatcher: Launched kernel 0
159540678510: system.cpu0.workload.drivers0.device.dispatcher: Launched kernel 0
159540680730: system.cpu0.workload.drivers0.device.dispatcher: Launched kernel 0
159540682950: system.cpu0.workload.drivers0.device.dispatcher: Launched kernel 0
159540685170: system.cpu0.workload.drivers0.device.dispatcher: Launched kernel 0
159540687390: system.cpu0.workload.drivers0.device.dispatcher: Launched kernel 0
159543300330: system.cpu0.workload.drivers0.device.dispatcher: Completed kernel 0
160564458001: system.cpu0.workload.drivers0.device: Kernel name: Blit kernel
160564959316: system.cpu0.workload.drivers0.device.dispatcher: Launched kernel 1
160568786040: system.cpu0.workload.drivers0.device.dispatcher: Completed kernel 1
Dummy value = 0
Ticks: 167654368500
Exiting because  exiting with last active thread context
