Global frequency set at 1000000000000 ticks per second
Forcing maxCoalescedReqs to 32 (TLB assoc.) 
Forcing maxCoalescedReqs to 32 (TLB assoc.) 
Forcing maxCoalescedReqs to 32 (TLB assoc.) 
Forcing maxCoalescedReqs to 32 (TLB assoc.) 
Forcing maxCoalescedReqs to 32 (TLB assoc.) 
Forcing maxCoalescedReqs to 32 (TLB assoc.) 
Forcing maxCoalescedReqs to 32 (TLB assoc.) 
Forcing maxCoalescedReqs to 32 (TLB assoc.) 
gem5 Simulator System.  https://www.gem5.org
gem5 is copyrighted software; use the --copyright option for details.

gem5 version DEVELOP-FOR-23.1
gem5 compiled Nov  7 2023 23:23:15
gem5 started Nov 18 2023 07:57:43
gem5 executing on a95efdd104e5, pid 1
command line: build/VEGA_X86/gem5.opt --debug-flag=GPUKernelInfo configs/example/apu_se.py -n 3 --dgpu --gfx-version=gfx900 --num-compute-units=4 --cu-per-sa=4 --num-gpu-complex=1 --reg-alloc-policy=dynamic --num-tccs=8 --num-dirs=64 --mem-size=16GB --mem-type=HBM_2000_4H_1x64 --vreg-file-size=16384 --sreg-file-size=800 --tcc-size=256kB --gpu-clock=1801MHz --ruby-clock=1000MHz --vrf_lm_bus_latency=6 --mem-req-latency=69 --mem-resp-latency=69 --mandatory_queue_latency=1 --max-cu-tokens=160 --max-coalesces-per-cycle=10 --sqc-size=16kB --tcp-size=512B --scalar-mem-req-latency=28 --TCP_latency=4 --tcp-assoc=4 --tcp-num-banks=16 --TCC_latency=121 --tcc-assoc=16 --tcc-tag-access-latency=1 --tcc-data-access-latency=1 --tcp-rp=LFURP --WB_L2 --tcc-rp=LFURP -c gpu_test_fewer_wait/lfu_test_3

info: Standard input is not a terminal, disabling listeners.
Num SQC =  1 Num scalar caches =  1 Num CU =  4
159542547001: system.cpu0.workload.drivers0.device: Kernel name: Blit kernel
159543057796: system.cpu0.workload.drivers0.device.dispatcher: Launched kernel 0
159547922370: system.cpu0.workload.drivers0.device.dispatcher: Launched kernel 0
159547924590: system.cpu0.workload.drivers0.device.dispatcher: Launched kernel 0
159547926810: system.cpu0.workload.drivers0.device.dispatcher: Launched kernel 0
159547935690: system.cpu0.workload.drivers0.device.dispatcher: Launched kernel 0
159547955670: system.cpu0.workload.drivers0.device.dispatcher: Launched kernel 0
159547957890: system.cpu0.workload.drivers0.device.dispatcher: Launched kernel 0
159547964550: system.cpu0.workload.drivers0.device.dispatcher: Launched kernel 0
159547966770: system.cpu0.workload.drivers0.device.dispatcher: Launched kernel 0
159547973430: system.cpu0.workload.drivers0.device.dispatcher: Launched kernel 0
159547975650: system.cpu0.workload.drivers0.device.dispatcher: Launched kernel 0
159547991190: system.cpu0.workload.drivers0.device.dispatcher: Launched kernel 0
159547993410: system.cpu0.workload.drivers0.device.dispatcher: Launched kernel 0
159548000070: system.cpu0.workload.drivers0.device.dispatcher: Launched kernel 0
159548002290: system.cpu0.workload.drivers0.device.dispatcher: Launched kernel 0
159548004510: system.cpu0.workload.drivers0.device.dispatcher: Launched kernel 0
159548006730: system.cpu0.workload.drivers0.device.dispatcher: Launched kernel 0
159548008950: system.cpu0.workload.drivers0.device.dispatcher: Launched kernel 0
159548011170: system.cpu0.workload.drivers0.device.dispatcher: Launched kernel 0
159548013390: system.cpu0.workload.drivers0.device.dispatcher: Launched kernel 0
159548015610: system.cpu0.workload.drivers0.device.dispatcher: Launched kernel 0
159548017830: system.cpu0.workload.drivers0.device.dispatcher: Launched kernel 0
159548020050: system.cpu0.workload.drivers0.device.dispatcher: Launched kernel 0
159548022270: system.cpu0.workload.drivers0.device.dispatcher: Launched kernel 0
159548024490: system.cpu0.workload.drivers0.device.dispatcher: Launched kernel 0
159548026710: system.cpu0.workload.drivers0.device.dispatcher: Launched kernel 0
159548028930: system.cpu0.workload.drivers0.device.dispatcher: Launched kernel 0
159548031150: system.cpu0.workload.drivers0.device.dispatcher: Launched kernel 0
159548033370: system.cpu0.workload.drivers0.device.dispatcher: Launched kernel 0
159548035590: system.cpu0.workload.drivers0.device.dispatcher: Launched kernel 0
159548037810: system.cpu0.workload.drivers0.device.dispatcher: Launched kernel 0
159548040030: system.cpu0.workload.drivers0.device.dispatcher: Launched kernel 0
159548042250: system.cpu0.workload.drivers0.device.dispatcher: Launched kernel 0
159550657410: system.cpu0.workload.drivers0.device.dispatcher: Completed kernel 0
160569896001: system.cpu0.workload.drivers0.device: Kernel name: Blit kernel
160570397206: system.cpu0.workload.drivers0.device.dispatcher: Launched kernel 1
160578595665: system.cpu0.workload.drivers0.device.dispatcher: Completed kernel 1
Dummy value = 0
Ticks: 167664198500
Exiting because  exiting with last active thread context
