Global frequency set at 1000000000000 ticks per second
Forcing maxCoalescedReqs to 32 (TLB assoc.) 
Forcing maxCoalescedReqs to 32 (TLB assoc.) 
Forcing maxCoalescedReqs to 32 (TLB assoc.) 
Forcing maxCoalescedReqs to 32 (TLB assoc.) 
Forcing maxCoalescedReqs to 32 (TLB assoc.) 
Forcing maxCoalescedReqs to 32 (TLB assoc.) 
Forcing maxCoalescedReqs to 32 (TLB assoc.) 
Forcing maxCoalescedReqs to 32 (TLB assoc.) 
gem5 Simulator System.  https://www.gem5.org
gem5 is copyrighted software; use the --copyright option for details.

gem5 version DEVELOP-FOR-23.1
gem5 compiled Nov  7 2023 23:23:15
gem5 started Nov 18 2023 08:06:44
gem5 executing on 998a5bedaf59, pid 1
command line: build/VEGA_X86/gem5.opt --debug-flag=GPUKernelInfo configs/example/apu_se.py -n 3 --dgpu --gfx-version=gfx900 --num-compute-units=4 --cu-per-sa=4 --num-gpu-complex=1 --reg-alloc-policy=dynamic --num-tccs=8 --num-dirs=64 --mem-size=16GB --mem-type=HBM_2000_4H_1x64 --vreg-file-size=16384 --sreg-file-size=800 --tcc-size=256kB --gpu-clock=1801MHz --ruby-clock=1000MHz --vrf_lm_bus_latency=6 --mem-req-latency=69 --mem-resp-latency=69 --mandatory_queue_latency=1 --max-cu-tokens=160 --max-coalesces-per-cycle=10 --sqc-size=16kB --tcp-size=512B --scalar-mem-req-latency=28 --TCP_latency=4 --tcp-assoc=4 --tcp-num-banks=16 --TCC_latency=121 --tcc-assoc=16 --tcc-tag-access-latency=1 --tcc-data-access-latency=1 --tcp-rp=LRURP --WB_L2 --tcc-rp=LRURP -c gpu_test_fewer_wait/lru_test_1

info: Standard input is not a terminal, disabling listeners.
Num SQC =  1 Num scalar caches =  1 Num CU =  4
159537467001: system.cpu0.workload.drivers0.device: Kernel name: Blit kernel
159537977326: system.cpu0.workload.drivers0.device.dispatcher: Launched kernel 0
159542838015: system.cpu0.workload.drivers0.device.dispatcher: Launched kernel 0
159542840235: system.cpu0.workload.drivers0.device.dispatcher: Launched kernel 0
159542842455: system.cpu0.workload.drivers0.device.dispatcher: Launched kernel 0
159542851335: system.cpu0.workload.drivers0.device.dispatcher: Launched kernel 0
159542871315: system.cpu0.workload.drivers0.device.dispatcher: Launched kernel 0
159542873535: system.cpu0.workload.drivers0.device.dispatcher: Launched kernel 0
159542880195: system.cpu0.workload.drivers0.device.dispatcher: Launched kernel 0
159542882415: system.cpu0.workload.drivers0.device.dispatcher: Launched kernel 0
159542889075: system.cpu0.workload.drivers0.device.dispatcher: Launched kernel 0
159542891295: system.cpu0.workload.drivers0.device.dispatcher: Launched kernel 0
159542906835: system.cpu0.workload.drivers0.device.dispatcher: Launched kernel 0
159542909055: system.cpu0.workload.drivers0.device.dispatcher: Launched kernel 0
159542915715: system.cpu0.workload.drivers0.device.dispatcher: Launched kernel 0
159542917935: system.cpu0.workload.drivers0.device.dispatcher: Launched kernel 0
159542920155: system.cpu0.workload.drivers0.device.dispatcher: Launched kernel 0
159542922375: system.cpu0.workload.drivers0.device.dispatcher: Launched kernel 0
159542924595: system.cpu0.workload.drivers0.device.dispatcher: Launched kernel 0
159542926815: system.cpu0.workload.drivers0.device.dispatcher: Launched kernel 0
159542929035: system.cpu0.workload.drivers0.device.dispatcher: Launched kernel 0
159542931255: system.cpu0.workload.drivers0.device.dispatcher: Launched kernel 0
159542933475: system.cpu0.workload.drivers0.device.dispatcher: Launched kernel 0
159542935695: system.cpu0.workload.drivers0.device.dispatcher: Launched kernel 0
159542937915: system.cpu0.workload.drivers0.device.dispatcher: Launched kernel 0
159542940135: system.cpu0.workload.drivers0.device.dispatcher: Launched kernel 0
159542942355: system.cpu0.workload.drivers0.device.dispatcher: Launched kernel 0
159542944575: system.cpu0.workload.drivers0.device.dispatcher: Launched kernel 0
159542946795: system.cpu0.workload.drivers0.device.dispatcher: Launched kernel 0
159542949015: system.cpu0.workload.drivers0.device.dispatcher: Launched kernel 0
159542951235: system.cpu0.workload.drivers0.device.dispatcher: Launched kernel 0
159542953455: system.cpu0.workload.drivers0.device.dispatcher: Launched kernel 0
159542955675: system.cpu0.workload.drivers0.device.dispatcher: Launched kernel 0
159542957895: system.cpu0.workload.drivers0.device.dispatcher: Launched kernel 0
159545541420: system.cpu0.workload.drivers0.device.dispatcher: Completed kernel 0
160563538001: system.cpu0.workload.drivers0.device: Kernel name: Blit kernel
160564039126: system.cpu0.workload.drivers0.device.dispatcher: Launched kernel 1
160571451705: system.cpu0.workload.drivers0.device.dispatcher: Completed kernel 1
Dummy value = 0
Ticks: 167654526500
Exiting because  exiting with last active thread context
