Global frequency set at 1000000000000 ticks per second
Forcing maxCoalescedReqs to 32 (TLB assoc.) 
Forcing maxCoalescedReqs to 32 (TLB assoc.) 
Forcing maxCoalescedReqs to 32 (TLB assoc.) 
Forcing maxCoalescedReqs to 32 (TLB assoc.) 
Forcing maxCoalescedReqs to 32 (TLB assoc.) 
Forcing maxCoalescedReqs to 32 (TLB assoc.) 
Forcing maxCoalescedReqs to 32 (TLB assoc.) 
Forcing maxCoalescedReqs to 32 (TLB assoc.) 
gem5 Simulator System.  https://www.gem5.org
gem5 is copyrighted software; use the --copyright option for details.

gem5 version DEVELOP-FOR-23.1
gem5 compiled Nov  4 2023 18:02:29
gem5 started Nov  4 2023 23:48:05
gem5 executing on 7cb5899eee04, pid 1
command line: build/VEGA_X86/gem5.opt --debug-flag=GPUKernelInfo configs/example/apu_se.py -n 3 --dgpu --gfx-version=gfx900 --num-compute-units=4 --cu-per-sa=4 --num-gpu-complex=1 --reg-alloc-policy=dynamic --num-tccs=8 --num-dirs=64 --mem-size=16GB --mem-type=HBM_2000_4H_1x64 --vreg-file-size=16384 --sreg-file-size=800 --tcc-size=256kB --gpu-clock=1801MHz --ruby-clock=1000MHz --vrf_lm_bus_latency=6 --mem-req-latency=69 --mem-resp-latency=69 --mandatory_queue_latency=1 --max-cu-tokens=160 --max-coalesces-per-cycle=10 --sqc-size=16kB --tcp-size=512B --scalar-mem-req-latency=28 --TCP_latency=4 --tcp-assoc=4 --tcp-num-banks=16 --TCC_latency=121 --tcc-assoc=16 --tcc-tag-access-latency=1 --tcc-data-access-latency=1 --tcp-rp=LFURP --WB_L2 --tcc-rp=LFURP -c gpu_test/lfu_test_1

info: Standard input is not a terminal, disabling listeners.
Num SQC =  1 Num scalar caches =  1 Num CU =  4
159533417001: system.cpu0.workload.drivers0.device: Kernel name: Blit kernel
159533927491: system.cpu0.workload.drivers0.device.dispatcher: Launched kernel 0
159538786515: system.cpu0.workload.drivers0.device.dispatcher: Launched kernel 0
159538788735: system.cpu0.workload.drivers0.device.dispatcher: Launched kernel 0
159538790955: system.cpu0.workload.drivers0.device.dispatcher: Launched kernel 0
159538799835: system.cpu0.workload.drivers0.device.dispatcher: Launched kernel 0
159538819815: system.cpu0.workload.drivers0.device.dispatcher: Launched kernel 0
159538822035: system.cpu0.workload.drivers0.device.dispatcher: Launched kernel 0
159538828695: system.cpu0.workload.drivers0.device.dispatcher: Launched kernel 0
159538830915: system.cpu0.workload.drivers0.device.dispatcher: Launched kernel 0
159538837575: system.cpu0.workload.drivers0.device.dispatcher: Launched kernel 0
159538839795: system.cpu0.workload.drivers0.device.dispatcher: Launched kernel 0
159538855335: system.cpu0.workload.drivers0.device.dispatcher: Launched kernel 0
159538857555: system.cpu0.workload.drivers0.device.dispatcher: Launched kernel 0
159538864215: system.cpu0.workload.drivers0.device.dispatcher: Launched kernel 0
159538866435: system.cpu0.workload.drivers0.device.dispatcher: Launched kernel 0
159538868655: system.cpu0.workload.drivers0.device.dispatcher: Launched kernel 0
159538870875: system.cpu0.workload.drivers0.device.dispatcher: Launched kernel 0
159538873095: system.cpu0.workload.drivers0.device.dispatcher: Launched kernel 0
159538875315: system.cpu0.workload.drivers0.device.dispatcher: Launched kernel 0
159538877535: system.cpu0.workload.drivers0.device.dispatcher: Launched kernel 0
159538879755: system.cpu0.workload.drivers0.device.dispatcher: Launched kernel 0
159538881975: system.cpu0.workload.drivers0.device.dispatcher: Launched kernel 0
159538884195: system.cpu0.workload.drivers0.device.dispatcher: Launched kernel 0
159538886415: system.cpu0.workload.drivers0.device.dispatcher: Launched kernel 0
159538888635: system.cpu0.workload.drivers0.device.dispatcher: Launched kernel 0
159538890855: system.cpu0.workload.drivers0.device.dispatcher: Launched kernel 0
159538893075: system.cpu0.workload.drivers0.device.dispatcher: Launched kernel 0
159538895295: system.cpu0.workload.drivers0.device.dispatcher: Launched kernel 0
159538897515: system.cpu0.workload.drivers0.device.dispatcher: Launched kernel 0
159538899735: system.cpu0.workload.drivers0.device.dispatcher: Launched kernel 0
159538901955: system.cpu0.workload.drivers0.device.dispatcher: Launched kernel 0
159538904175: system.cpu0.workload.drivers0.device.dispatcher: Launched kernel 0
159538906395: system.cpu0.workload.drivers0.device.dispatcher: Launched kernel 0
159541519335: system.cpu0.workload.drivers0.device.dispatcher: Completed kernel 0
160561700001: system.cpu0.workload.drivers0.device: Kernel name: Blit kernel
160562200966: system.cpu0.workload.drivers0.device.dispatcher: Launched kernel 1
160567258680: system.cpu0.workload.drivers0.device.dispatcher: Completed kernel 1
Dummy value = 0
Ticks: 167648654500
Exiting because  exiting with last active thread context
