Global frequency set at 1000000000000 ticks per second
Forcing maxCoalescedReqs to 32 (TLB assoc.) 
Forcing maxCoalescedReqs to 32 (TLB assoc.) 
Forcing maxCoalescedReqs to 32 (TLB assoc.) 
Forcing maxCoalescedReqs to 32 (TLB assoc.) 
Forcing maxCoalescedReqs to 32 (TLB assoc.) 
Forcing maxCoalescedReqs to 32 (TLB assoc.) 
Forcing maxCoalescedReqs to 32 (TLB assoc.) 
Forcing maxCoalescedReqs to 32 (TLB assoc.) 
gem5 Simulator System.  https://www.gem5.org
gem5 is copyrighted software; use the --copyright option for details.

gem5 version DEVELOP-FOR-23.1
gem5 compiled Nov  4 2023 18:02:29
gem5 started Nov  4 2023 23:57:18
gem5 executing on 7b717dab078c, pid 1
command line: build/VEGA_X86/gem5.opt --debug-flag=GPUKernelInfo configs/example/apu_se.py -n 3 --dgpu --gfx-version=gfx900 --num-compute-units=4 --cu-per-sa=4 --num-gpu-complex=1 --reg-alloc-policy=dynamic --num-tccs=8 --num-dirs=64 --mem-size=16GB --mem-type=HBM_2000_4H_1x64 --vreg-file-size=16384 --sreg-file-size=800 --tcc-size=256kB --gpu-clock=1801MHz --ruby-clock=1000MHz --vrf_lm_bus_latency=6 --mem-req-latency=69 --mem-resp-latency=69 --mandatory_queue_latency=1 --max-cu-tokens=160 --max-coalesces-per-cycle=10 --sqc-size=16kB --tcp-size=512B --scalar-mem-req-latency=28 --TCP_latency=4 --tcp-assoc=4 --tcp-num-banks=16 --TCC_latency=121 --tcc-assoc=16 --tcc-tag-access-latency=1 --tcc-data-access-latency=1 --tcp-rp=LFURP --WB_L2 --tcc-rp=LFURP -c gpu_test/lfu_test_3

info: Standard input is not a terminal, disabling listeners.
Num SQC =  1 Num scalar caches =  1 Num CU =  4
159541533001: system.cpu0.workload.drivers0.device: Kernel name: Blit kernel
159542043811: system.cpu0.workload.drivers0.device.dispatcher: Launched kernel 0
159546974985: system.cpu0.workload.drivers0.device.dispatcher: Launched kernel 0
159546977205: system.cpu0.workload.drivers0.device.dispatcher: Launched kernel 0
159546979425: system.cpu0.workload.drivers0.device.dispatcher: Launched kernel 0
159546988305: system.cpu0.workload.drivers0.device.dispatcher: Launched kernel 0
159547008285: system.cpu0.workload.drivers0.device.dispatcher: Launched kernel 0
159547010505: system.cpu0.workload.drivers0.device.dispatcher: Launched kernel 0
159547017165: system.cpu0.workload.drivers0.device.dispatcher: Launched kernel 0
159547019385: system.cpu0.workload.drivers0.device.dispatcher: Launched kernel 0
159547026045: system.cpu0.workload.drivers0.device.dispatcher: Launched kernel 0
159547028265: system.cpu0.workload.drivers0.device.dispatcher: Launched kernel 0
159547043805: system.cpu0.workload.drivers0.device.dispatcher: Launched kernel 0
159547046025: system.cpu0.workload.drivers0.device.dispatcher: Launched kernel 0
159547052685: system.cpu0.workload.drivers0.device.dispatcher: Launched kernel 0
159547054905: system.cpu0.workload.drivers0.device.dispatcher: Launched kernel 0
159547057125: system.cpu0.workload.drivers0.device.dispatcher: Launched kernel 0
159547059345: system.cpu0.workload.drivers0.device.dispatcher: Launched kernel 0
159547061565: system.cpu0.workload.drivers0.device.dispatcher: Launched kernel 0
159547063785: system.cpu0.workload.drivers0.device.dispatcher: Launched kernel 0
159547066005: system.cpu0.workload.drivers0.device.dispatcher: Launched kernel 0
159547068225: system.cpu0.workload.drivers0.device.dispatcher: Launched kernel 0
159547070445: system.cpu0.workload.drivers0.device.dispatcher: Launched kernel 0
159547072665: system.cpu0.workload.drivers0.device.dispatcher: Launched kernel 0
159547074885: system.cpu0.workload.drivers0.device.dispatcher: Launched kernel 0
159547077105: system.cpu0.workload.drivers0.device.dispatcher: Launched kernel 0
159547079325: system.cpu0.workload.drivers0.device.dispatcher: Launched kernel 0
159547081545: system.cpu0.workload.drivers0.device.dispatcher: Launched kernel 0
159547083765: system.cpu0.workload.drivers0.device.dispatcher: Launched kernel 0
159547085985: system.cpu0.workload.drivers0.device.dispatcher: Launched kernel 0
159547088205: system.cpu0.workload.drivers0.device.dispatcher: Launched kernel 0
159547090425: system.cpu0.workload.drivers0.device.dispatcher: Launched kernel 0
159547092645: system.cpu0.workload.drivers0.device.dispatcher: Launched kernel 0
159547094865: system.cpu0.workload.drivers0.device.dispatcher: Launched kernel 0
159549676725: system.cpu0.workload.drivers0.device.dispatcher: Completed kernel 0
160570891001: system.cpu0.workload.drivers0.device: Kernel name: Blit kernel
160571392321: system.cpu0.workload.drivers0.device.dispatcher: Launched kernel 1
160581839640: system.cpu0.workload.drivers0.device.dispatcher: Completed kernel 1
Dummy value = 0
Ticks: 167663748500
Exiting because  exiting with last active thread context
