Global frequency set at 1000000000000 ticks per second
Forcing maxCoalescedReqs to 32 (TLB assoc.) 
Forcing maxCoalescedReqs to 32 (TLB assoc.) 
Forcing maxCoalescedReqs to 32 (TLB assoc.) 
Forcing maxCoalescedReqs to 32 (TLB assoc.) 
Forcing maxCoalescedReqs to 32 (TLB assoc.) 
Forcing maxCoalescedReqs to 32 (TLB assoc.) 
Forcing maxCoalescedReqs to 32 (TLB assoc.) 
Forcing maxCoalescedReqs to 32 (TLB assoc.) 
gem5 Simulator System.  https://www.gem5.org
gem5 is copyrighted software; use the --copyright option for details.

gem5 version DEVELOP-FOR-23.1
gem5 compiled Nov  4 2023 18:02:29
gem5 started Nov  5 2023 00:01:46
gem5 executing on 908b1fa488cd, pid 1
command line: build/VEGA_X86/gem5.opt --debug-flag=GPUKernelInfo configs/example/apu_se.py -n 3 --dgpu --gfx-version=gfx900 --num-compute-units=4 --cu-per-sa=4 --num-gpu-complex=1 --reg-alloc-policy=dynamic --num-tccs=8 --num-dirs=64 --mem-size=16GB --mem-type=HBM_2000_4H_1x64 --vreg-file-size=16384 --sreg-file-size=800 --tcc-size=256kB --gpu-clock=1801MHz --ruby-clock=1000MHz --vrf_lm_bus_latency=6 --mem-req-latency=69 --mem-resp-latency=69 --mandatory_queue_latency=1 --max-cu-tokens=160 --max-coalesces-per-cycle=10 --sqc-size=16kB --tcp-size=512B --scalar-mem-req-latency=28 --TCP_latency=4 --tcp-assoc=4 --tcp-num-banks=16 --TCC_latency=121 --tcc-assoc=16 --tcc-tag-access-latency=1 --tcc-data-access-latency=1 --tcp-rp=LIPRP --WB_L2 --tcc-rp=LIPRP -c gpu_test/lip_test_1

info: Standard input is not a terminal, disabling listeners.
Num SQC =  1 Num scalar caches =  1 Num CU =  4
159538255001: system.cpu0.workload.drivers0.device: Kernel name: Blit kernel
159538765426: system.cpu0.workload.drivers0.device.dispatcher: Launched kernel 0
159543625005: system.cpu0.workload.drivers0.device.dispatcher: Launched kernel 0
159543627225: system.cpu0.workload.drivers0.device.dispatcher: Launched kernel 0
159543629445: system.cpu0.workload.drivers0.device.dispatcher: Launched kernel 0
159543638325: system.cpu0.workload.drivers0.device.dispatcher: Launched kernel 0
159543658305: system.cpu0.workload.drivers0.device.dispatcher: Launched kernel 0
159543660525: system.cpu0.workload.drivers0.device.dispatcher: Launched kernel 0
159543667185: system.cpu0.workload.drivers0.device.dispatcher: Launched kernel 0
159543669405: system.cpu0.workload.drivers0.device.dispatcher: Launched kernel 0
159543676065: system.cpu0.workload.drivers0.device.dispatcher: Launched kernel 0
159543678285: system.cpu0.workload.drivers0.device.dispatcher: Launched kernel 0
159543693825: system.cpu0.workload.drivers0.device.dispatcher: Launched kernel 0
159543696045: system.cpu0.workload.drivers0.device.dispatcher: Launched kernel 0
159543702705: system.cpu0.workload.drivers0.device.dispatcher: Launched kernel 0
159543704925: system.cpu0.workload.drivers0.device.dispatcher: Launched kernel 0
159543707145: system.cpu0.workload.drivers0.device.dispatcher: Launched kernel 0
159543709365: system.cpu0.workload.drivers0.device.dispatcher: Launched kernel 0
159543711585: system.cpu0.workload.drivers0.device.dispatcher: Launched kernel 0
159543713805: system.cpu0.workload.drivers0.device.dispatcher: Launched kernel 0
159543716025: system.cpu0.workload.drivers0.device.dispatcher: Launched kernel 0
159543718245: system.cpu0.workload.drivers0.device.dispatcher: Launched kernel 0
159543720465: system.cpu0.workload.drivers0.device.dispatcher: Launched kernel 0
159543722685: system.cpu0.workload.drivers0.device.dispatcher: Launched kernel 0
159543724905: system.cpu0.workload.drivers0.device.dispatcher: Launched kernel 0
159543727125: system.cpu0.workload.drivers0.device.dispatcher: Launched kernel 0
159543729345: system.cpu0.workload.drivers0.device.dispatcher: Launched kernel 0
159543731565: system.cpu0.workload.drivers0.device.dispatcher: Launched kernel 0
159543733785: system.cpu0.workload.drivers0.device.dispatcher: Launched kernel 0
159543736005: system.cpu0.workload.drivers0.device.dispatcher: Launched kernel 0
159543738225: system.cpu0.workload.drivers0.device.dispatcher: Launched kernel 0
159543740445: system.cpu0.workload.drivers0.device.dispatcher: Launched kernel 0
159543742665: system.cpu0.workload.drivers0.device.dispatcher: Launched kernel 0
159543744885: system.cpu0.workload.drivers0.device.dispatcher: Launched kernel 0
159546358380: system.cpu0.workload.drivers0.device.dispatcher: Completed kernel 0
160566688001: system.cpu0.workload.drivers0.device: Kernel name: Blit kernel
160567189306: system.cpu0.workload.drivers0.device.dispatcher: Launched kernel 1
160575098610: system.cpu0.workload.drivers0.device.dispatcher: Completed kernel 1
Dummy value = 0
Ticks: 167658370500
Exiting because  exiting with last active thread context
