Global frequency set at 1000000000000 ticks per second
Forcing maxCoalescedReqs to 32 (TLB assoc.) 
Forcing maxCoalescedReqs to 32 (TLB assoc.) 
Forcing maxCoalescedReqs to 32 (TLB assoc.) 
Forcing maxCoalescedReqs to 32 (TLB assoc.) 
Forcing maxCoalescedReqs to 32 (TLB assoc.) 
Forcing maxCoalescedReqs to 32 (TLB assoc.) 
Forcing maxCoalescedReqs to 32 (TLB assoc.) 
Forcing maxCoalescedReqs to 32 (TLB assoc.) 
gem5 Simulator System.  https://www.gem5.org
gem5 is copyrighted software; use the --copyright option for details.

gem5 version DEVELOP-FOR-23.1
gem5 compiled Nov  4 2023 18:02:29
gem5 started Nov  5 2023 00:06:37
gem5 executing on bc88713c618e, pid 1
command line: build/VEGA_X86/gem5.opt --debug-flag=GPUKernelInfo configs/example/apu_se.py -n 3 --dgpu --gfx-version=gfx900 --num-compute-units=4 --cu-per-sa=4 --num-gpu-complex=1 --reg-alloc-policy=dynamic --num-tccs=8 --num-dirs=64 --mem-size=16GB --mem-type=HBM_2000_4H_1x64 --vreg-file-size=16384 --sreg-file-size=800 --tcc-size=256kB --gpu-clock=1801MHz --ruby-clock=1000MHz --vrf_lm_bus_latency=6 --mem-req-latency=69 --mem-resp-latency=69 --mandatory_queue_latency=1 --max-cu-tokens=160 --max-coalesces-per-cycle=10 --sqc-size=16kB --tcp-size=512B --scalar-mem-req-latency=28 --TCP_latency=4 --tcp-assoc=4 --tcp-num-banks=16 --TCC_latency=121 --tcc-assoc=16 --tcc-tag-access-latency=1 --tcc-data-access-latency=1 --tcp-rp=LRURP --WB_L2 --tcc-rp=LRURP -c gpu_test/lru_test_1

info: Standard input is not a terminal, disabling listeners.
Num SQC =  1 Num scalar caches =  1 Num CU =  4
159537943001: system.cpu0.workload.drivers0.device: Kernel name: Blit kernel
159538453516: system.cpu0.workload.drivers0.device.dispatcher: Launched kernel 0
159543311985: system.cpu0.workload.drivers0.device.dispatcher: Launched kernel 0
159543314205: system.cpu0.workload.drivers0.device.dispatcher: Launched kernel 0
159543316425: system.cpu0.workload.drivers0.device.dispatcher: Launched kernel 0
159543325305: system.cpu0.workload.drivers0.device.dispatcher: Launched kernel 0
159543345285: system.cpu0.workload.drivers0.device.dispatcher: Launched kernel 0
159543347505: system.cpu0.workload.drivers0.device.dispatcher: Launched kernel 0
159543354165: system.cpu0.workload.drivers0.device.dispatcher: Launched kernel 0
159543356385: system.cpu0.workload.drivers0.device.dispatcher: Launched kernel 0
159543363045: system.cpu0.workload.drivers0.device.dispatcher: Launched kernel 0
159543365265: system.cpu0.workload.drivers0.device.dispatcher: Launched kernel 0
159543380805: system.cpu0.workload.drivers0.device.dispatcher: Launched kernel 0
159543383025: system.cpu0.workload.drivers0.device.dispatcher: Launched kernel 0
159543389685: system.cpu0.workload.drivers0.device.dispatcher: Launched kernel 0
159543391905: system.cpu0.workload.drivers0.device.dispatcher: Launched kernel 0
159543394125: system.cpu0.workload.drivers0.device.dispatcher: Launched kernel 0
159543396345: system.cpu0.workload.drivers0.device.dispatcher: Launched kernel 0
159543398565: system.cpu0.workload.drivers0.device.dispatcher: Launched kernel 0
159543400785: system.cpu0.workload.drivers0.device.dispatcher: Launched kernel 0
159543403005: system.cpu0.workload.drivers0.device.dispatcher: Launched kernel 0
159543405225: system.cpu0.workload.drivers0.device.dispatcher: Launched kernel 0
159543407445: system.cpu0.workload.drivers0.device.dispatcher: Launched kernel 0
159543409665: system.cpu0.workload.drivers0.device.dispatcher: Launched kernel 0
159543411885: system.cpu0.workload.drivers0.device.dispatcher: Launched kernel 0
159543414105: system.cpu0.workload.drivers0.device.dispatcher: Launched kernel 0
159543416325: system.cpu0.workload.drivers0.device.dispatcher: Launched kernel 0
159543418545: system.cpu0.workload.drivers0.device.dispatcher: Launched kernel 0
159543420765: system.cpu0.workload.drivers0.device.dispatcher: Launched kernel 0
159543422985: system.cpu0.workload.drivers0.device.dispatcher: Launched kernel 0
159543425205: system.cpu0.workload.drivers0.device.dispatcher: Launched kernel 0
159543427425: system.cpu0.workload.drivers0.device.dispatcher: Launched kernel 0
159543429645: system.cpu0.workload.drivers0.device.dispatcher: Launched kernel 0
159543431865: system.cpu0.workload.drivers0.device.dispatcher: Launched kernel 0
159546027600: system.cpu0.workload.drivers0.device.dispatcher: Completed kernel 0
160565331001: system.cpu0.workload.drivers0.device: Kernel name: Blit kernel
160565832331: system.cpu0.workload.drivers0.device.dispatcher: Launched kernel 1
160574581905: system.cpu0.workload.drivers0.device.dispatcher: Completed kernel 1
Dummy value = 0
Ticks: 167654484500
Exiting because  exiting with last active thread context
