Global frequency set at 1000000000000 ticks per second
Forcing maxCoalescedReqs to 32 (TLB assoc.) 
Forcing maxCoalescedReqs to 32 (TLB assoc.) 
Forcing maxCoalescedReqs to 32 (TLB assoc.) 
Forcing maxCoalescedReqs to 32 (TLB assoc.) 
Forcing maxCoalescedReqs to 32 (TLB assoc.) 
Forcing maxCoalescedReqs to 32 (TLB assoc.) 
Forcing maxCoalescedReqs to 32 (TLB assoc.) 
Forcing maxCoalescedReqs to 32 (TLB assoc.) 
gem5 Simulator System.  https://www.gem5.org
gem5 is copyrighted software; use the --copyright option for details.

gem5 version DEVELOP-FOR-23.1
gem5 compiled Nov  4 2023 18:02:29
gem5 started Nov  5 2023 00:35:57
gem5 executing on 616e32e642d8, pid 1
command line: build/VEGA_X86/gem5.opt --debug-flag=GPUKernelInfo configs/example/apu_se.py -n 3 --dgpu --gfx-version=gfx900 --num-compute-units=4 --cu-per-sa=4 --num-gpu-complex=1 --reg-alloc-policy=dynamic --num-tccs=8 --num-dirs=64 --mem-size=16GB --mem-type=HBM_2000_4H_1x64 --vreg-file-size=16384 --sreg-file-size=800 --tcc-size=256kB --gpu-clock=1801MHz --ruby-clock=1000MHz --vrf_lm_bus_latency=6 --mem-req-latency=69 --mem-resp-latency=69 --mandatory_queue_latency=1 --max-cu-tokens=160 --max-coalesces-per-cycle=10 --sqc-size=16kB --tcp-size=512B --scalar-mem-req-latency=28 --TCP_latency=4 --tcp-assoc=4 --tcp-num-banks=16 --TCC_latency=121 --tcc-assoc=16 --tcc-tag-access-latency=1 --tcc-data-access-latency=1 --tcp-rp=NRURP --WB_L2 --tcc-rp=NRURP -c gpu_test/nru_test_1

info: Standard input is not a terminal, disabling listeners.
Num SQC =  1 Num scalar caches =  1 Num CU =  4
159535453001: system.cpu0.workload.drivers0.device: Kernel name: Blit kernel
159535963786: system.cpu0.workload.drivers0.device.dispatcher: Launched kernel 0
159540823365: system.cpu0.workload.drivers0.device.dispatcher: Launched kernel 0
159540825585: system.cpu0.workload.drivers0.device.dispatcher: Launched kernel 0
159540827805: system.cpu0.workload.drivers0.device.dispatcher: Launched kernel 0
159540836685: system.cpu0.workload.drivers0.device.dispatcher: Launched kernel 0
159540856665: system.cpu0.workload.drivers0.device.dispatcher: Launched kernel 0
159540858885: system.cpu0.workload.drivers0.device.dispatcher: Launched kernel 0
159540865545: system.cpu0.workload.drivers0.device.dispatcher: Launched kernel 0
159540867765: system.cpu0.workload.drivers0.device.dispatcher: Launched kernel 0
159540874425: system.cpu0.workload.drivers0.device.dispatcher: Launched kernel 0
159540876645: system.cpu0.workload.drivers0.device.dispatcher: Launched kernel 0
159540892185: system.cpu0.workload.drivers0.device.dispatcher: Launched kernel 0
159540894405: system.cpu0.workload.drivers0.device.dispatcher: Launched kernel 0
159540901065: system.cpu0.workload.drivers0.device.dispatcher: Launched kernel 0
159540903285: system.cpu0.workload.drivers0.device.dispatcher: Launched kernel 0
159540905505: system.cpu0.workload.drivers0.device.dispatcher: Launched kernel 0
159540907725: system.cpu0.workload.drivers0.device.dispatcher: Launched kernel 0
159540909945: system.cpu0.workload.drivers0.device.dispatcher: Launched kernel 0
159540912165: system.cpu0.workload.drivers0.device.dispatcher: Launched kernel 0
159540914385: system.cpu0.workload.drivers0.device.dispatcher: Launched kernel 0
159540916605: system.cpu0.workload.drivers0.device.dispatcher: Launched kernel 0
159540918825: system.cpu0.workload.drivers0.device.dispatcher: Launched kernel 0
159540921045: system.cpu0.workload.drivers0.device.dispatcher: Launched kernel 0
159540923265: system.cpu0.workload.drivers0.device.dispatcher: Launched kernel 0
159540925485: system.cpu0.workload.drivers0.device.dispatcher: Launched kernel 0
159540927705: system.cpu0.workload.drivers0.device.dispatcher: Launched kernel 0
159540929925: system.cpu0.workload.drivers0.device.dispatcher: Launched kernel 0
159540932145: system.cpu0.workload.drivers0.device.dispatcher: Launched kernel 0
159540934365: system.cpu0.workload.drivers0.device.dispatcher: Launched kernel 0
159540936585: system.cpu0.workload.drivers0.device.dispatcher: Launched kernel 0
159540938805: system.cpu0.workload.drivers0.device.dispatcher: Launched kernel 0
159540941025: system.cpu0.workload.drivers0.device.dispatcher: Launched kernel 0
159540943245: system.cpu0.workload.drivers0.device.dispatcher: Launched kernel 0
159543558405: system.cpu0.workload.drivers0.device.dispatcher: Completed kernel 0
160564280001: system.cpu0.workload.drivers0.device: Kernel name: Blit kernel
160564781161: system.cpu0.workload.drivers0.device.dispatcher: Launched kernel 1
160571060985: system.cpu0.workload.drivers0.device.dispatcher: Completed kernel 1
Dummy value = 0
Ticks: 167650598500
Exiting because  exiting with last active thread context
