Global frequency set at 1000000000000 ticks per second
Forcing maxCoalescedReqs to 32 (TLB assoc.) 
Forcing maxCoalescedReqs to 32 (TLB assoc.) 
Forcing maxCoalescedReqs to 32 (TLB assoc.) 
Forcing maxCoalescedReqs to 32 (TLB assoc.) 
Forcing maxCoalescedReqs to 32 (TLB assoc.) 
Forcing maxCoalescedReqs to 32 (TLB assoc.) 
Forcing maxCoalescedReqs to 32 (TLB assoc.) 
Forcing maxCoalescedReqs to 32 (TLB assoc.) 
gem5 Simulator System.  https://www.gem5.org
gem5 is copyrighted software; use the --copyright option for details.

gem5 version DEVELOP-FOR-23.1
gem5 compiled Nov  4 2023 18:02:29
gem5 started Nov  5 2023 00:40:30
gem5 executing on 5620f1478376, pid 1
command line: build/VEGA_X86/gem5.opt --debug-flag=GPUKernelInfo configs/example/apu_se.py -n 3 --dgpu --gfx-version=gfx900 --num-compute-units=4 --cu-per-sa=4 --num-gpu-complex=1 --reg-alloc-policy=dynamic --num-tccs=8 --num-dirs=64 --mem-size=16GB --mem-type=HBM_2000_4H_1x64 --vreg-file-size=16384 --sreg-file-size=800 --tcc-size=256kB --gpu-clock=1801MHz --ruby-clock=1000MHz --vrf_lm_bus_latency=6 --mem-req-latency=69 --mem-resp-latency=69 --mandatory_queue_latency=1 --max-cu-tokens=160 --max-coalesces-per-cycle=10 --sqc-size=16kB --tcp-size=512B --scalar-mem-req-latency=28 --TCP_latency=4 --tcp-assoc=4 --tcp-num-banks=16 --TCC_latency=121 --tcc-assoc=16 --tcc-tag-access-latency=1 --tcc-data-access-latency=1 --tcp-rp=RRIPRP --WB_L2 --tcc-rp=RRIPRP -c gpu_test/rrip_test_1

info: Standard input is not a terminal, disabling listeners.
Num SQC =  1 Num scalar caches =  1 Num CU =  4
159539339001: system.cpu0.workload.drivers0.device: Kernel name: Blit kernel
159539849341: system.cpu0.workload.drivers0.device.dispatcher: Launched kernel 0
159544708365: system.cpu0.workload.drivers0.device.dispatcher: Launched kernel 0
159544710585: system.cpu0.workload.drivers0.device.dispatcher: Launched kernel 0
159544712805: system.cpu0.workload.drivers0.device.dispatcher: Launched kernel 0
159544721685: system.cpu0.workload.drivers0.device.dispatcher: Launched kernel 0
159544741665: system.cpu0.workload.drivers0.device.dispatcher: Launched kernel 0
159544743885: system.cpu0.workload.drivers0.device.dispatcher: Launched kernel 0
159544750545: system.cpu0.workload.drivers0.device.dispatcher: Launched kernel 0
159544752765: system.cpu0.workload.drivers0.device.dispatcher: Launched kernel 0
159544759425: system.cpu0.workload.drivers0.device.dispatcher: Launched kernel 0
159544761645: system.cpu0.workload.drivers0.device.dispatcher: Launched kernel 0
159544777185: system.cpu0.workload.drivers0.device.dispatcher: Launched kernel 0
159544779405: system.cpu0.workload.drivers0.device.dispatcher: Launched kernel 0
159544786065: system.cpu0.workload.drivers0.device.dispatcher: Launched kernel 0
159544788285: system.cpu0.workload.drivers0.device.dispatcher: Launched kernel 0
159544790505: system.cpu0.workload.drivers0.device.dispatcher: Launched kernel 0
159544792725: system.cpu0.workload.drivers0.device.dispatcher: Launched kernel 0
159544794945: system.cpu0.workload.drivers0.device.dispatcher: Launched kernel 0
159544797165: system.cpu0.workload.drivers0.device.dispatcher: Launched kernel 0
159544799385: system.cpu0.workload.drivers0.device.dispatcher: Launched kernel 0
159544801605: system.cpu0.workload.drivers0.device.dispatcher: Launched kernel 0
159544803825: system.cpu0.workload.drivers0.device.dispatcher: Launched kernel 0
159544806045: system.cpu0.workload.drivers0.device.dispatcher: Launched kernel 0
159544808265: system.cpu0.workload.drivers0.device.dispatcher: Launched kernel 0
159544810485: system.cpu0.workload.drivers0.device.dispatcher: Launched kernel 0
159544812705: system.cpu0.workload.drivers0.device.dispatcher: Launched kernel 0
159544814925: system.cpu0.workload.drivers0.device.dispatcher: Launched kernel 0
159544817145: system.cpu0.workload.drivers0.device.dispatcher: Launched kernel 0
159544819365: system.cpu0.workload.drivers0.device.dispatcher: Launched kernel 0
159544821585: system.cpu0.workload.drivers0.device.dispatcher: Launched kernel 0
159544823805: system.cpu0.workload.drivers0.device.dispatcher: Launched kernel 0
159544826025: system.cpu0.workload.drivers0.device.dispatcher: Launched kernel 0
159544828245: system.cpu0.workload.drivers0.device.dispatcher: Launched kernel 0
159547443405: system.cpu0.workload.drivers0.device.dispatcher: Completed kernel 0
160567388001: system.cpu0.workload.drivers0.device: Kernel name: Blit kernel
160567889161: system.cpu0.workload.drivers0.device.dispatcher: Launched kernel 1
160574568030: system.cpu0.workload.drivers0.device.dispatcher: Completed kernel 1
Dummy value = 0
Ticks: 167655990500
Exiting because  exiting with last active thread context
