Global frequency set at 1000000000000 ticks per second
Forcing maxCoalescedReqs to 32 (TLB assoc.) 
Forcing maxCoalescedReqs to 32 (TLB assoc.) 
Forcing maxCoalescedReqs to 32 (TLB assoc.) 
Forcing maxCoalescedReqs to 32 (TLB assoc.) 
Forcing maxCoalescedReqs to 32 (TLB assoc.) 
Forcing maxCoalescedReqs to 32 (TLB assoc.) 
Forcing maxCoalescedReqs to 32 (TLB assoc.) 
Forcing maxCoalescedReqs to 32 (TLB assoc.) 
gem5 Simulator System.  https://www.gem5.org
gem5 is copyrighted software; use the --copyright option for details.

gem5 version DEVELOP-FOR-23.1
gem5 compiled Nov  4 2023 18:02:29
gem5 started Nov  5 2023 00:45:13
gem5 executing on 26cdb8487954, pid 1
command line: build/VEGA_X86/gem5.opt --debug-flag=GPUKernelInfo configs/example/apu_se.py -n 3 --dgpu --gfx-version=gfx900 --num-compute-units=4 --cu-per-sa=4 --num-gpu-complex=1 --reg-alloc-policy=dynamic --num-tccs=8 --num-dirs=64 --mem-size=16GB --mem-type=HBM_2000_4H_1x64 --vreg-file-size=16384 --sreg-file-size=800 --tcc-size=256kB --gpu-clock=1801MHz --ruby-clock=1000MHz --vrf_lm_bus_latency=6 --mem-req-latency=69 --mem-resp-latency=69 --mandatory_queue_latency=1 --max-cu-tokens=160 --max-coalesces-per-cycle=10 --sqc-size=16kB --tcp-size=512B --scalar-mem-req-latency=28 --TCP_latency=4 --tcp-assoc=4 --tcp-num-banks=16 --TCC_latency=121 --tcc-assoc=16 --tcc-tag-access-latency=1 --tcc-data-access-latency=1 --tcp-rp=RRIPRP --WB_L2 --tcc-rp=RRIPRP -c gpu_test/rrip_test_2

info: Standard input is not a terminal, disabling listeners.
Num SQC =  1 Num scalar caches =  1 Num CU =  4
159539767001: system.cpu0.workload.drivers0.device: Kernel name: Blit kernel
159540344401: system.cpu0.workload.drivers0.device.dispatcher: Launched kernel 0
159545203980: system.cpu0.workload.drivers0.device.dispatcher: Launched kernel 0
159545206200: system.cpu0.workload.drivers0.device.dispatcher: Launched kernel 0
159545208420: system.cpu0.workload.drivers0.device.dispatcher: Launched kernel 0
159545217300: system.cpu0.workload.drivers0.device.dispatcher: Launched kernel 0
159545237280: system.cpu0.workload.drivers0.device.dispatcher: Launched kernel 0
159545239500: system.cpu0.workload.drivers0.device.dispatcher: Launched kernel 0
159545246160: system.cpu0.workload.drivers0.device.dispatcher: Launched kernel 0
159545248380: system.cpu0.workload.drivers0.device.dispatcher: Launched kernel 0
159545255040: system.cpu0.workload.drivers0.device.dispatcher: Launched kernel 0
159545257260: system.cpu0.workload.drivers0.device.dispatcher: Launched kernel 0
159545272800: system.cpu0.workload.drivers0.device.dispatcher: Launched kernel 0
159545275020: system.cpu0.workload.drivers0.device.dispatcher: Launched kernel 0
159545281680: system.cpu0.workload.drivers0.device.dispatcher: Launched kernel 0
159545283900: system.cpu0.workload.drivers0.device.dispatcher: Launched kernel 0
159545286120: system.cpu0.workload.drivers0.device.dispatcher: Launched kernel 0
159545288340: system.cpu0.workload.drivers0.device.dispatcher: Launched kernel 0
159545290560: system.cpu0.workload.drivers0.device.dispatcher: Launched kernel 0
159545292780: system.cpu0.workload.drivers0.device.dispatcher: Launched kernel 0
159545295000: system.cpu0.workload.drivers0.device.dispatcher: Launched kernel 0
159545297220: system.cpu0.workload.drivers0.device.dispatcher: Launched kernel 0
159545299440: system.cpu0.workload.drivers0.device.dispatcher: Launched kernel 0
159545301660: system.cpu0.workload.drivers0.device.dispatcher: Launched kernel 0
159545303880: system.cpu0.workload.drivers0.device.dispatcher: Launched kernel 0
159545306100: system.cpu0.workload.drivers0.device.dispatcher: Launched kernel 0
159545308320: system.cpu0.workload.drivers0.device.dispatcher: Launched kernel 0
159545310540: system.cpu0.workload.drivers0.device.dispatcher: Launched kernel 0
159545312760: system.cpu0.workload.drivers0.device.dispatcher: Launched kernel 0
159545314980: system.cpu0.workload.drivers0.device.dispatcher: Launched kernel 0
159545317200: system.cpu0.workload.drivers0.device.dispatcher: Launched kernel 0
159545319420: system.cpu0.workload.drivers0.device.dispatcher: Launched kernel 0
159545321640: system.cpu0.workload.drivers0.device.dispatcher: Launched kernel 0
159545323860: system.cpu0.workload.drivers0.device.dispatcher: Launched kernel 0
159547937355: system.cpu0.workload.drivers0.device.dispatcher: Completed kernel 0
160568712001: system.cpu0.workload.drivers0.device: Kernel name: Blit kernel
160569213391: system.cpu0.workload.drivers0.device.dispatcher: Launched kernel 1
160576710330: system.cpu0.workload.drivers0.device.dispatcher: Completed kernel 1
Dummy value = 0
Ticks: 167655382500
Exiting because  exiting with last active thread context
